file 1252258160 1770742657                                      
version 3
run CongestionHigh-0-20260210-16:49:34-86
attr configname CongestionHigh
attr datetime 20260210-16:49:34
attr datetimef 20260210-164934
attr experiment CongestionHigh
attr inifile omnetpp.ini
attr iterationvars ""
attr iterationvarsd ""
attr iterationvarsf ""
attr measurement ""
attr network NetworkSlicing
attr processid 86
attr repetition 0
attr replication #0
attr resultdir results
attr runnumber 0
attr seedset 0
config description "Congestion forte - stress eMBB + mMTC + URLLC"
config *.numEmbbUes 12
config *.numUrllcUes 15
config *.numMmtcUes 5
config *.numBestEffortUes 5
config sim-time-limit 1800s
config *.ueEmbb[*].app[0].packetSize 1290B
config *.ueEmbb[*].app[0].samplingTime 0.002s
config *.ueUrllc[*].app[0].packetSize 292B
config *.ueUrllc[*].app[0].samplingTime 0.015s
config *.ueMmtc[*].app[0].packetSize 47B
config *.ueMmtc[*].app[0].samplingTime 2s
config network NetworkSlicing
config sim-time-limit 300s
config seed-set 0
config *.configurator.config "xml(\"<config><interface among='gnb iUpf upf router' address='10.x.x.x' netmask='255.255.255.0'/><interface hosts='*' address='192.168.x.x' netmask='255.255.255.0'/></config>\")"
config output-vector-file results/CongestionHigh-0.vec
config output-scalar-file results/CongestionHigh-0.sca
config **.mac.receivedPacketFromLowerLayer.result-recording-modes -
config **.mac.receivedPacketFromUpperLayer.result-recording-modes -
config **.mac.sentPacketToLowerLayer.result-recording-modes -
config **.mac.sentPacketToUpperLayer.result-recording-modes -
config **.app[*].**.vector-recording true
config **.app[*].**.scalar-recording true
config **.vector-recording false
config **.scalar-recording true
config **.cbrFrameDelay.vector-recording true
config **.cbrJitter.vector-recording true
config **.cbrFrameLoss.vector-recording true
config **.cbrRcvdPkt.vector-recording true
config **.cbrSentPkt.vector-recording true
config **.cbrGeneratedThroughput.vector-recording true
config **.cbrFrameDelay.result-recording-modes +vector
config **.cbrJitter.result-recording-modes +vector
config **.numBands 50
config **.ueTxPower 26dBm
config **.eNodeBTxPower 40dBm
config **.targetBler 0.01
config **.blerShift 5
config *.gnb.cellularNic.phy.carrierFrequency 3.5GHz
config *.gnb.cellularNic.mac.schedulingDisciplineDl "\"MAXCI\""
config *.gnb.cellularNic.mac.schedulingDisciplineUl "\"MAXCI\""
config **.mobility.constraintAreaMaxX 1000m
config **.mobility.constraintAreaMaxY 1000m
config **.mobility.constraintAreaMinX 0m
config **.mobility.constraintAreaMinY 0m
config **.mobility.constraintAreaMinZ 0m
config **.mobility.constraintAreaMaxZ 0m
config **.mobility.initFromDisplayString false
config *.gnb.mobility.initialX 500m
config *.gnb.mobility.initialY 500m
config *.ueEmbb[*].mobility.initialX "uniform(400m, 600m)"
config *.ueEmbb[*].mobility.initialY "uniform(400m, 600m)"
config *.ueUrllc[*].mobility.initialX "uniform(450m, 550m)"
config *.ueUrllc[*].mobility.initialY "uniform(450m, 550m)"
config *.ueMmtc[*].mobility.initialX "uniform(350m, 650m)"
config *.ueMmtc[*].mobility.initialY "uniform(350m, 650m)"
config *.ueBestEffort[*].mobility.initialX "uniform(400m, 600m)"
config *.ueBestEffort[*].mobility.initialY "uniform(400m, 600m)"
config *.gnb.cellularNic.mac.qosHandler.slicing true
config *.ueEmbb[*].macCellId 0
config *.ueEmbb[*].masterId 0
config *.ueEmbb[*].nrMacCellId 1
config *.ueEmbb[*].nrMasterId 1
config *.ueUrllc[*].macCellId 0
config *.ueUrllc[*].masterId 0
config *.ueUrllc[*].nrMacCellId 1
config *.ueUrllc[*].nrMasterId 1
config *.ueMmtc[*].macCellId 0
config *.ueMmtc[*].masterId 0
config *.ueMmtc[*].nrMacCellId 1
config *.ueMmtc[*].nrMasterId 1
config *.ueBestEffort[*].macCellId 0
config *.ueBestEffort[*].masterId 0
config *.ueBestEffort[*].nrMacCellId 1
config *.ueBestEffort[*].nrMasterId 1
config *.gnb.cellularNic.mac.sliceConfig "xmldoc(\"sliceConfig.xml\")"
config *.ueEmbb[*].numApps 1
config *.ueEmbb[*].app[0].typename simu5g.apps.cbr.CbrSender
config *.ueEmbb[*].app[0].destAddress "\"serverEmbb\""
config *.ueEmbb[*].app[0].destPort 49005
config *.ueEmbb[*].app[0].packetSize 1400B
config *.ueEmbb[*].app[0].samplingTime 0.001s
config *.ueEmbb[*].app[0].startTime "uniform(0s, 1s)"
config *.ueEmbb[*].app[0].finishTime 0s
config *.serverEmbb.numApps 1
config *.serverEmbb.app[0].typename simu5g.apps.cbr.CbrReceiver
config *.serverEmbb.app[0].localPort 49005
config *.ueUrllc[*].numApps 1
config *.ueUrllc[*].app[0].typename simu5g.apps.cbr.CbrSender
config *.ueUrllc[*].app[0].destAddress "\"serverUrllc\""
config *.ueUrllc[*].app[0].destPort 49003
config *.ueUrllc[*].app[0].packetSize 200B
config *.ueUrllc[*].app[0].samplingTime 0.005s
config *.ueUrllc[*].app[0].startTime "uniform(0s, 0.5s)"
config *.ueUrllc[*].app[0].finishTime 0s
config *.serverUrllc.numApps 1
config *.serverUrllc.app[0].typename simu5g.apps.cbr.CbrReceiver
config *.serverUrllc.app[0].localPort 49003
config *.ueMmtc[*].numApps 1
config *.ueMmtc[*].app[0].typename simu5g.apps.cbr.CbrSender
config *.ueMmtc[*].app[0].destAddress "\"serverMmtc\""
config *.ueMmtc[*].app[0].destPort 8443
config *.ueMmtc[*].app[0].packetSize 100B
config *.ueMmtc[*].app[0].samplingTime 1s
config *.ueMmtc[*].app[0].startTime "uniform(0s, 5s)"
config *.ueMmtc[*].app[0].finishTime 0s
config *.serverMmtc.numApps 1
config *.serverMmtc.app[0].typename simu5g.apps.cbr.CbrReceiver
config *.serverMmtc.app[0].localPort 8443
config *.ueBestEffort[*].numApps 1
config *.ueBestEffort[*].app[0].typename simu5g.apps.cbr.CbrSender
config *.ueBestEffort[*].app[0].destAddress "\"serverBestEffort\""
config *.ueBestEffort[*].app[0].destPort 5000
config *.ueBestEffort[*].app[0].packetSize 512B
config *.ueBestEffort[*].app[0].samplingTime 0.1s
config *.ueBestEffort[*].app[0].startTime "uniform(0s, 2s)"
config *.ueBestEffort[*].app[0].finishTime 0s
config *.serverBestEffort.numApps 1
config *.serverBestEffort.app[0].typename simu5g.apps.cbr.CbrReceiver
config *.serverBestEffort.app[0].localPort 5000

vector 0 NetworkSlicing.gnb.cellularNic.pdcp receivedPacketFromUpperLayer:vector(packetBytes) ETV
attr interpolationmode none
attr recordingmode vector(packetBytes)
attr source receivedPacketFromUpperLayer
vector 1 NetworkSlicing.gnb.cellularNic.pdcp receivedPacketFromLowerLayer:vector(packetBytes) ETV
attr interpolationmode none
attr recordingmode vector(packetBytes)
attr source receivedPacketFromLowerLayer
vector 2 NetworkSlicing.gnb.cellularNic.pdcp sentPacketToUpperLayer:vector(packetBytes) ETV
attr interpolationmode none
attr recordingmode vector(packetBytes)
attr source sentPacketToUpperLayer
vector 3 NetworkSlicing.gnb.cellularNic.pdcp sentPacketToLowerLayer:vector(packetBytes) ETV
attr interpolationmode none
attr recordingmode vector(packetBytes)
attr source sentPacketToLowerLayer
vector 4 NetworkSlicing.gnb.cellularNic.rlc.tm rlcPacketLossUl:vector ETV
attr recordingmode vector
attr source rlcPacketLossUl
attr title "rlc Packet Loss"
attr unit ""
vector 5 NetworkSlicing.gnb.cellularNic.rlc.tm rlcPacketLossDl:vector ETV
attr recordingmode vector
attr source rlcPacketLossDl
attr title "rlc Packet Loss"
attr unit ""
vector 6 NetworkSlicing.gnb.cellularNic.rlc.tm receivedPacketFromUpperLayer:vector(packetBytes) ETV
attr interpolationmode none
attr recordingmode vector(packetBytes)
attr source receivedPacketFromUpperLayer
vector 7 NetworkSlicing.gnb.cellularNic.rlc.tm receivedPacketFromLowerLayer:vector(packetBytes) ETV
attr interpolationmode none
attr recordingmode vector(packetBytes)
attr source receivedPacketFromLowerLayer
vector 8 NetworkSlicing.gnb.cellularNic.rlc.tm sentPacketToUpperLayer:vector(packetBytes) ETV
attr interpolationmode none
attr recordingmode vector(packetBytes)
attr source sentPacketToUpperLayer
vector 9 NetworkSlicing.gnb.cellularNic.rlc.tm sentPacketToLowerLayer:vector(packetBytes) ETV
attr interpolationmode none
attr recordingmode vector(packetBytes)
attr source sentPacketToLowerLayer
vector 10 NetworkSlicing.gnb.cellularNic.rlc.um rlcDelayDl:vector ETV
attr recordingmode vector
attr source rlcDelayDl
attr title "Delay at the rlc layer DL"
attr unit s
vector 11 NetworkSlicing.gnb.cellularNic.rlc.um rlcThroughputDl:vector ETV
attr recordingmode vector
attr source rlcThroughputDl
attr title "Throughput at the rlc layer DL"
attr unit Bps
vector 12 NetworkSlicing.gnb.cellularNic.rlc.um rlcDelayUl:vector ETV
attr recordingmode vector
attr source rlcDelayUl
attr title "Delay at the rlc layer UL"
attr unit s
vector 13 NetworkSlicing.gnb.cellularNic.rlc.um rlcThroughputUl:vector ETV
attr recordingmode vector
attr source rlcThroughputUl
attr title "Throughput at the rlc layer UL"
attr unit Bps
vector 14 NetworkSlicing.gnb.cellularNic.rlc.um rlcPduDelayDl:vector ETV
attr recordingmode vector
attr source rlcPduDelayDl
attr title "Delay at the rlc layer UL"
attr unit s
vector 15 NetworkSlicing.gnb.cellularNic.rlc.um rlcPduThroughputDl:vector ETV
attr recordingmode vector
attr source rlcPduThroughputDl
attr title "Throughput at the rlc layer DL"
attr unit Bps
vector 16 NetworkSlicing.gnb.cellularNic.rlc.um rlcPduDelayUl:vector ETV
attr recordingmode vector
attr source rlcPduDelayUl
attr title "Delay at the rlc layer UL"
attr unit s
vector 17 NetworkSlicing.gnb.cellularNic.rlc.um rlcPduThroughputUl:vector ETV
attr recordingmode vector
attr source rlcPduThroughputUl
attr title "Throughput at the rlc layer UL"
attr unit Bps
vector 18 NetworkSlicing.gnb.cellularNic.rlc.um receivedPacketFromUpperLayer:vector(packetBytes) ETV
attr interpolationmode none
attr recordingmode vector(packetBytes)
attr source receivedPacketFromUpperLayer
vector 19 NetworkSlicing.gnb.cellularNic.rlc.um receivedPacketFromLowerLayer:vector(packetBytes) ETV
attr interpolationmode none
attr recordingmode vector(packetBytes)
attr source receivedPacketFromLowerLayer
vector 20 NetworkSlicing.gnb.cellularNic.rlc.um sentPacketToUpperLayer:vector(packetBytes) ETV
attr interpolationmode none
attr recordingmode vector(packetBytes)
attr source sentPacketToUpperLayer
vector 21 NetworkSlicing.gnb.cellularNic.rlc.um sentPacketToLowerLayer:vector(packetBytes) ETV
attr interpolationmode none
attr recordingmode vector(packetBytes)
attr source sentPacketToLowerLayer
vector 22 NetworkSlicing.gnb.cellularNic.rlc.um rlcDelayD2D:vector ETV
attr recordingmode vector
attr source rlcDelayD2D
attr title "Delay at the rlc layer D2D"
attr unit s
vector 23 NetworkSlicing.gnb.cellularNic.rlc.um rlcThroughputD2D:vector ETV
attr recordingmode vector
attr source rlcThroughputD2D
attr title "Throughput at the rlc layer D2D"
attr unit Bps
vector 24 NetworkSlicing.gnb.cellularNic.rlc.um rlcCellThroughputD2D:vector ETV
attr recordingmode vector
attr source rlcCellThroughputD2D
attr title "Cell Throughput at the rlc layer D2D"
attr unit Bps
vector 25 NetworkSlicing.gnb.cellularNic.rlc.um rlcPduDelayD2D:vector ETV
attr recordingmode vector
attr source rlcPduDelayD2D
attr title "Delay at the rlc layer D2D"
attr unit s
vector 26 NetworkSlicing.gnb.cellularNic.rlc.um rlcPduThroughputD2D:vector ETV
attr recordingmode vector
attr source rlcPduThroughputD2D
attr title "Throughput at the rlc layer D2D"
attr unit Bps
vector 27 NetworkSlicing.gnb.cellularNic.mac macDelayDl:vector ETV
attr recordingmode vector
attr source macDelayDl
attr title "Delay at the MAC layer UL"
attr unit s
vector 28 NetworkSlicing.gnb.cellularNic.mac macDelayUl:vector ETV
attr recordingmode vector
attr source macDelayUl
attr title "Delay at the MAC layer UL"
attr unit s
vector 29 NetworkSlicing.gnb.cellularNic.mac harqErrorRateUl:vector ETV
attr recordingmode vector
attr source harqErrorRateUl
attr title "Harq Error Rate Ul"
attr unit ""
vector 30 NetworkSlicing.gnb.cellularNic.mac harqErrorRateDl:vector ETV
attr recordingmode vector
attr source harqErrorRateDl
attr title "Harq Error Rate Dl"
attr unit ""
vector 31 NetworkSlicing.gnb.cellularNic.mac harqTxAttemptsDl:vector ETV
attr recordingmode vector
attr source harqTxAttemptsDl
attr title "Harq Tx Attempts Dl"
attr unit ""
vector 32 NetworkSlicing.gnb.cellularNic.mac harqTxAttemptsUl:vector ETV
attr recordingmode vector
attr source harqTxAttemptsUl
attr title "Harq Tx Attempts Ul"
attr unit ""
vector 33 NetworkSlicing.gnb.cellularNic.mac harqErrorRate_1st_Ul:vector ETV
attr recordingmode vector
attr source harqErrorRate_1st_Ul
attr title "Harq Error Rate Ul (1st tx)"
attr unit ""
vector 34 NetworkSlicing.gnb.cellularNic.mac harqErrorRate_1st_Dl:vector ETV
attr recordingmode vector
attr source harqErrorRate_1st_Dl
attr title "Harq Error Rate Dl (1st tx)"
attr unit ""
vector 35 NetworkSlicing.gnb.cellularNic.mac harqErrorRate_2nd_Ul:vector ETV
attr recordingmode vector
attr source harqErrorRate_2nd_Ul
attr title "Harq Error Rate Ul (2nd tx)"
attr unit ""
vector 36 NetworkSlicing.gnb.cellularNic.mac harqErrorRate_2nd_Dl:vector ETV
attr recordingmode vector
attr source harqErrorRate_2nd_Dl
attr title "Harq Error Rate Dl (2nd tx)"
attr unit ""
vector 37 NetworkSlicing.gnb.cellularNic.mac harqErrorRate_3rd_Ul:vector ETV
attr recordingmode vector
attr source harqErrorRate_3rd_Ul
attr title "Harq Error Rate Ul (3rd tx)"
attr unit ""
vector 38 NetworkSlicing.gnb.cellularNic.mac harqErrorRate_3rd_Dl:vector ETV
attr recordingmode vector
attr source harqErrorRate_3rd_Dl
attr title "Harq Error Rate Dl (3rd tx)"
attr unit ""
vector 39 NetworkSlicing.gnb.cellularNic.mac harqErrorRate_4th_Ul:vector ETV
attr recordingmode vector
attr source harqErrorRate_4th_Ul
attr title "Harq Error Rate Ul (4th tx)"
attr unit ""
vector 40 NetworkSlicing.gnb.cellularNic.mac harqErrorRate_4th_Dl:vector ETV
attr recordingmode vector
attr source harqErrorRate_4th_Dl
attr title "Harq Error Rate Dl (4th tx)"
attr unit ""
vector 41 NetworkSlicing.gnb.cellularNic.mac avgServedBlocksDl:vector ETV
attr recordingmode vector
attr source avgServedBlocksDl
attr title "Average number of allocated Resource Blocks in the Dl"
attr unit blocks
vector 42 NetworkSlicing.gnb.cellularNic.mac avgServedBlocksUl:vector ETV
attr recordingmode vector
attr source avgServedBlocksUl
attr title "Average number of allocated Resource Blocks in the Dl"
attr unit blocks
vector 43 NetworkSlicing.gnb.cellularNic.channelModel[0] rcvdSinrDl:vector ETV
attr recordingmode vector
attr source rcvdSinrDl
attr title "SINR measured at packet reception, DL"
attr unit dB
vector 44 NetworkSlicing.gnb.cellularNic.channelModel[0] rcvdSinrUl:vector ETV
attr recordingmode vector
attr source rcvdSinrUl
attr title "SINR measured at packet reception, UL"
attr unit dB
vector 45 NetworkSlicing.gnb.cellularNic.channelModel[0] rcvdSinrD2D:vector ETV
attr recordingmode vector
attr source rcvdSinrD2D
attr title "SINR measured at packet reception, D2D"
attr unit dB
vector 46 NetworkSlicing.gnb.cellularNic.channelModel[0] measuredSinrDl:vector ETV
attr recordingmode vector
attr source measuredSinrDl
attr title "SINR measured at feedback computation, DL"
attr unit dB
vector 47 NetworkSlicing.gnb.cellularNic.channelModel[0] measuredSinrUl:vector ETV
attr recordingmode vector
attr source measuredSinrUl
attr title "SINR measured at feedback computation, UL"
attr unit dB
vector 48 NetworkSlicing.gnb.cellularNic packetDropInterfaceDown:vector(packetBytes) ETV
attr interpolationmode none
attr recordingmode vector(packetBytes)
attr source packetDropReasonIsInterfaceDown(packetDropped)
attr title "packet drops: interface down, packetBytes"
vector 49 NetworkSlicing.gnb.cellularNic packetDropNoCarrier:vector(packetBytes) ETV
attr interpolationmode none
attr recordingmode vector(packetBytes)
attr source packetDropReasonIsNoCarrier(packetDropped)
attr title "packet drops: no carrier, packetBytes"
vector 50 NetworkSlicing.gnb.pppIf.queue queueLength:vector ETV
attr autoWarmupFilter false
attr interpolationmode sample-hold
attr recordingmode vector
attr source "warmup(atomic(constant0(packetPushEnded) + count(packetPushStarted) - count(packetPulled) - count(packetRemoved) - count(packetDropped)))"
attr title "queue length"
attr unit pk
vector 51 NetworkSlicing.gnb.pppIf.queue queueBitLength:vector ETV
attr autoWarmupFilter false
attr interpolationmode sample-hold
attr recordingmode vector
attr source "warmup(atomic(constant0(packetPushEnded) + sum(packetLength(packetPushStarted)) - sum(packetLength(packetPulled)) - sum(packetLength(packetRemoved)) - sum(packetLength(packetDropped))))"
attr title "queue bit length"
attr unit b
vector 52 NetworkSlicing.gnb.pppIf.queue queueingTime:vector ETV
attr interpolationmode none
attr recordingmode vector
attr source queueingTime(packetPulled)
attr title "queueing times"
attr unit s
vector 53 NetworkSlicing.gnb.pppIf.queue incomingPacketLengths:vector ETV
attr interpolationmode none
attr recordingmode vector
attr source packetLength(packetPushStarted)
attr title "incoming packet lengths"
attr unit b
vector 54 NetworkSlicing.gnb.pppIf.queue incomingDataRate:vector ETV
attr interpolationmode linear
attr recordingmode vector
attr source throughput(packetPushStarted)
attr title "incoming datarate"
attr unit bps
vector 55 NetworkSlicing.gnb.pppIf.queue outgoingPacketLengths:vector ETV
attr interpolationmode none
attr recordingmode vector
attr source packetLength(packetPulled)
attr title "outgoing packet lengths"
attr unit b
vector 56 NetworkSlicing.gnb.pppIf.queue outgoingDataRate:vector ETV
attr interpolationmode linear
attr recordingmode vector
attr source throughput(packetPulled)
attr title "outgoing datarate"
attr unit bps
vector 57 NetworkSlicing.gnb.pppIf.queue droppedPacketLengthsQueueOverflow:vector ETV
attr interpolationmode none
attr recordingmode vector
attr source packetLength(packetDropReasonIsQueueOverflow(packetDropped))
attr title "dropped packet lengths: queue overflow"
attr unit b
vector 58 NetworkSlicing.gnb.pppIf.queue flowQueueingTime:vector ETV
attr interpolationmode none
attr recordingmode vector
attr source queueingTime(demuxFlow(packetPulled))
attr title "flow queueing times"
attr unit s
vector 59 NetworkSlicing.gnb.pppIf.queue flowIncomingDataRate:vector ETV
attr interpolationmode linear
attr recordingmode vector
attr source throughput(flowPacketLength(demuxFlow(packetPushStarted)))
attr title "flow specific incoming data rate"
attr unit bps
vector 60 NetworkSlicing.gnb.pppIf.queue flowOutgoingDataRate:vector ETV
attr interpolationmode linear
attr recordingmode vector
attr source throughput(flowPacketLength(demuxFlow(packetPulled)))
attr title "flow specific outgoing data rate"
attr unit bps
vector 61 NetworkSlicing.gnb.pppIf.ppp transmissionState:vector ETV
attr interpolationmode sample-hold
attr recordingmode vector
attr source transmissionStateChanged
attr title "tx state"
vector 62 NetworkSlicing.gnb.pppIf.ppp txPk:vector(packetBytes) ETV
attr interpolationmode none
attr recordingmode vector(packetBytes)
attr source packetSentToLower
attr title "packets transmitted, packetBytes"
vector 63 NetworkSlicing.gnb.pppIf.ppp rxPkOk:vector(packetBytes) ETV
attr interpolationmode none
attr recordingmode vector(packetBytes)
attr source rxPkOk
attr title "packets received OK, packetBytes"
vector 64 NetworkSlicing.gnb.pppIf.ppp packetDropIncorrectlyReceived:vector(packetBytes) ETV
attr interpolationmode none
attr recordingmode vector(packetBytes)
attr source packetDropReasonIsIncorrectlyReceived(packetDropped)
attr title "packet drop: incorrectly received, packetBytes"
vector 65 NetworkSlicing.gnb.pppIf.ppp packetDropInterfaceDown:vector(packetBytes) ETV
attr interpolationmode none
attr recordingmode vector(packetBytes)
attr source packetDropReasonIsInterfaceDown(packetDropped)
attr title "packet drop: interface down, packetBytes"
vector 66 NetworkSlicing.gnb.pppIf.ppp rcvdPkFromHl:vector(packetBytes) ETV
attr interpolationmode none
attr recordingmode vector(packetBytes)
attr source packetReceivedFromUpper
attr title "packets received from higher layer, packetBytes"
vector 67 NetworkSlicing.gnb.pppIf.ppp passedUpPk:vector(packetBytes) ETV
attr interpolationmode none
attr recordingmode vector(packetBytes)
attr source packetSentToUpper
attr title "packets passed to higher layer, packetBytes"
vector 68 NetworkSlicing.gnb.pppIf packetDropInterfaceDown:vector(packetBytes) ETV
attr interpolationmode none
attr recordingmode vector(packetBytes)
attr source packetDropReasonIsInterfaceDown(packetDropped)
attr title "packet drops: interface down, packetBytes"
vector 69 NetworkSlicing.gnb.pppIf packetDropNoCarrier:vector(packetBytes) ETV
attr interpolationmode none
attr recordingmode vector(packetBytes)
attr source packetDropReasonIsNoCarrier(packetDropped)
attr title "packet drops: no carrier, packetBytes"
vector 70 NetworkSlicing.gnb.pppMEHostIf.queue queueLength:vector ETV
attr autoWarmupFilter false
attr interpolationmode sample-hold
attr recordingmode vector
attr source "warmup(atomic(constant0(packetPushEnded) + count(packetPushStarted) - count(packetPulled) - count(packetRemoved) - count(packetDropped)))"
attr title "queue length"
attr unit pk
vector 71 NetworkSlicing.gnb.pppMEHostIf.queue queueBitLength:vector ETV
attr autoWarmupFilter false
attr interpolationmode sample-hold
attr recordingmode vector
attr source "warmup(atomic(constant0(packetPushEnded) + sum(packetLength(packetPushStarted)) - sum(packetLength(packetPulled)) - sum(packetLength(packetRemoved)) - sum(packetLength(packetDropped))))"
attr title "queue bit length"
attr unit b
vector 72 NetworkSlicing.gnb.pppMEHostIf.queue queueingTime:vector ETV
attr interpolationmode none
attr recordingmode vector
attr source queueingTime(packetPulled)
attr title "queueing times"
attr unit s
vector 73 NetworkSlicing.gnb.pppMEHostIf.queue incomingPacketLengths:vector ETV
attr interpolationmode none
attr recordingmode vector
attr source packetLength(packetPushStarted)
attr title "incoming packet lengths"
attr unit b
vector 74 NetworkSlicing.gnb.pppMEHostIf.queue incomingDataRate:vector ETV
attr interpolationmode linear
attr recordingmode vector
attr source throughput(packetPushStarted)
attr title "incoming datarate"
attr unit bps
vector 75 NetworkSlicing.gnb.pppMEHostIf.queue outgoingPacketLengths:vector ETV
attr interpolationmode none
attr recordingmode vector
attr source packetLength(packetPulled)
attr title "outgoing packet lengths"
attr unit b
vector 76 NetworkSlicing.gnb.pppMEHostIf.queue outgoingDataRate:vector ETV
attr interpolationmode linear
attr recordingmode vector
attr source throughput(packetPulled)
attr title "outgoing datarate"
attr unit bps
vector 77 NetworkSlicing.gnb.pppMEHostIf.queue droppedPacketLengthsQueueOverflow:vector ETV
attr interpolationmode none
attr recordingmode vector
attr source packetLength(packetDropReasonIsQueueOverflow(packetDropped))
attr title "dropped packet lengths: queue overflow"
attr unit b
vector 78 NetworkSlicing.gnb.pppMEHostIf.queue flowQueueingTime:vector ETV
attr interpolationmode none
attr recordingmode vector
attr source queueingTime(demuxFlow(packetPulled))
attr title "flow queueing times"
attr unit s
vector 79 NetworkSlicing.gnb.pppMEHostIf.queue flowIncomingDataRate:vector ETV
attr interpolationmode linear
attr recordingmode vector
attr source throughput(flowPacketLength(demuxFlow(packetPushStarted)))
attr title "flow specific incoming data rate"
attr unit bps
vector 80 NetworkSlicing.gnb.pppMEHostIf.queue flowOutgoingDataRate:vector ETV
attr interpolationmode linear
attr recordingmode vector
attr source throughput(flowPacketLength(demuxFlow(packetPulled)))
attr title "flow specific outgoing data rate"
attr unit bps
vector 81 NetworkSlicing.gnb.pppMEHostIf.ppp transmissionState:vector ETV
attr interpolationmode sample-hold
attr recordingmode vector
attr source transmissionStateChanged
attr title "tx state"
vector 82 NetworkSlicing.gnb.pppMEHostIf.ppp txPk:vector(packetBytes) ETV
attr interpolationmode none
attr recordingmode vector(packetBytes)
attr source packetSentToLower
attr title "packets transmitted, packetBytes"
vector 83 NetworkSlicing.gnb.pppMEHostIf.ppp rxPkOk:vector(packetBytes) ETV
attr interpolationmode none
attr recordingmode vector(packetBytes)
attr source rxPkOk
attr title "packets received OK, packetBytes"
vector 84 NetworkSlicing.gnb.pppMEHostIf.ppp packetDropIncorrectlyReceived:vector(packetBytes) ETV
attr interpolationmode none
attr recordingmode vector(packetBytes)
attr source packetDropReasonIsIncorrectlyReceived(packetDropped)
attr title "packet drop: incorrectly received, packetBytes"
vector 85 NetworkSlicing.gnb.pppMEHostIf.ppp packetDropInterfaceDown:vector(packetBytes) ETV
attr interpolationmode none
attr recordingmode vector(packetBytes)
attr source packetDropReasonIsInterfaceDown(packetDropped)
attr title "packet drop: interface down, packetBytes"
vector 86 NetworkSlicing.gnb.pppMEHostIf.ppp rcvdPkFromHl:vector(packetBytes) ETV
attr interpolationmode none
attr recordingmode vector(packetBytes)
attr source packetReceivedFromUpper
attr title "packets received from higher layer, packetBytes"
vector 87 NetworkSlicing.gnb.pppMEHostIf.ppp passedUpPk:vector(packetBytes) ETV
attr interpolationmode none
attr recordingmode vector(packetBytes)
attr source packetSentToUpper
attr title "packets passed to higher layer, packetBytes"
vector 88 NetworkSlicing.gnb.pppMEHostIf packetDropInterfaceDown:vector(packetBytes) ETV
attr interpolationmode none
attr recordingmode vector(packetBytes)
attr source packetDropReasonIsInterfaceDown(packetDropped)
attr title "packet drops: interface down, packetBytes"
vector 89 NetworkSlicing.gnb.pppMEHostIf packetDropNoCarrier:vector(packetBytes) ETV
attr interpolationmode none
attr recordingmode vector(packetBytes)
attr source packetDropReasonIsNoCarrier(packetDropped)
attr title "packet drops: no carrier, packetBytes"
vector 90 NetworkSlicing.gnb.ipv4.ip packetDropAddressResolutionFailed:vector(packetBytes) ETV
attr interpolationmode none
attr recordingmode vector(packetBytes)
attr source packetDropReasonIsAddressResolutionFailed(packetDropped)
attr title "packet drop: address resolution failed, packetBytes"
vector 91 NetworkSlicing.gnb.ipv4.ip packetDropHopLimitReached:vector(packetBytes) ETV
attr interpolationmode none
attr recordingmode vector(packetBytes)
attr source packetDropReasonIsHopLimitReached(packetDropped)
attr title "packet drop: hop limit reached, packetBytes"
vector 92 NetworkSlicing.gnb.ipv4.ip packetDropForwardingDisabled:vector(packetBytes) ETV
attr interpolationmode none
attr recordingmode vector(packetBytes)
attr source packetDropReasonIsForwardingDisabled(packetDropped)
attr title "packet drop: forwarding disabled, packetBytes"
vector 93 NetworkSlicing.gnb.ipv4.ip packetDropNoInterfaceFound:vector(packetBytes) ETV
attr interpolationmode none
attr recordingmode vector(packetBytes)
attr source packetDropReasonIsNoInterfaceFound(packetDropped)
attr title "packet drop: no interface found, packetBytes"
vector 94 NetworkSlicing.gnb.ipv4.ip packetDropNoRouteFound:vector(packetBytes) ETV
attr interpolationmode none
attr recordingmode vector(packetBytes)
attr source packetDropReasonIsNoRouteFound(packetDropped)
attr title "packet drop: no route found, packetBytes"
vector 95 NetworkSlicing.gnb.ipv4.ip packetDropUndefined:vector(packetBytes) ETV
attr interpolationmode none
attr recordingmode vector(packetBytes)
attr source packetDropReasonIsUndefined(packetDropped)
attr title "packet drop: undefined, packetBytes"
vector 96 NetworkSlicing.gnb.ipv4.arp arpRequestSent:vector(packetBytes) ETV
attr recordingmode vector(packetBytes)
attr source arpRequestSent
attr title "ARP request sent, packetBytes"
vector 97 NetworkSlicing.gnb.ipv4.arp arpReplySent:vector(packetBytes) ETV
attr recordingmode vector(packetBytes)
attr source arpReplySent
attr title "ARP replies sent, packetBytes"
vector 98 NetworkSlicing.gnb.udp packetSent:vector(packetBytes) ETV
attr interpolationmode none
attr recordingmode vector(packetBytes)
attr source packetSent
attr title "packets sent, packetBytes"
vector 99 NetworkSlicing.gnb.udp packetReceived:vector(packetBytes) ETV
attr interpolationmode none
attr recordingmode vector(packetBytes)
attr source packetReceived
attr title "packets received, packetBytes"
vector 100 NetworkSlicing.gnb.udp passedUpPk:vector(count) ETV
attr interpolationmode none
attr recordingmode vector(count)
attr source packetSentToUpper
attr title "packets passed up, count"
vector 101 NetworkSlicing.gnb.udp droppedPkWrongPort:vector(count) ETV
attr interpolationmode none
attr recordingmode vector(count)
attr source packetDropReasonIsNoPortFound(packetDropped)
attr title "packets dropped (wrong port), count"
vector 102 NetworkSlicing.gnb.udp droppedPkBadChecksum:vector(count) ETV
attr interpolationmode none
attr recordingmode vector(count)
attr source packetDropReasonIsIncorrectlyReceived(packetDropped)
attr title "packets dropped (checksum error), count"
vector 103 NetworkSlicing.iUpf.lo[0].lo rcvdPkFromHl:vector(packetBytes) ETV
attr interpolationmode none
attr recordingmode vector(packetBytes)
attr source packetReceivedFromUpper
attr title "packets received from higher layer, packetBytes"
vector 104 NetworkSlicing.iUpf.lo[0].lo passedUpPk:vector(packetBytes) ETV
attr interpolationmode none
attr recordingmode vector(packetBytes)
attr source packetSentToUpper
attr title "packets passed to higher layer, packetBytes"
vector 105 NetworkSlicing.iUpf.lo[0] packetDropInterfaceDown:vector(packetBytes) ETV
attr interpolationmode none
attr recordingmode vector(packetBytes)
attr source packetDropReasonIsInterfaceDown(packetDropped)
attr title "packet drops: interface down, packetBytes"
vector 106 NetworkSlicing.iUpf.lo[0] packetDropNoCarrier:vector(packetBytes) ETV
attr interpolationmode none
attr recordingmode vector(packetBytes)
attr source packetDropReasonIsNoCarrier(packetDropped)
attr title "packet drops: no carrier, packetBytes"
vector 107 NetworkSlicing.iUpf.ppp[0].queue queueLength:vector ETV
attr autoWarmupFilter false
attr interpolationmode sample-hold
attr recordingmode vector
attr source "warmup(atomic(constant0(packetPushEnded) + count(packetPushStarted) - count(packetPulled) - count(packetRemoved) - count(packetDropped)))"
attr title "queue length"
attr unit pk
vector 108 NetworkSlicing.iUpf.ppp[0].queue queueBitLength:vector ETV
attr autoWarmupFilter false
attr interpolationmode sample-hold
attr recordingmode vector
attr source "warmup(atomic(constant0(packetPushEnded) + sum(packetLength(packetPushStarted)) - sum(packetLength(packetPulled)) - sum(packetLength(packetRemoved)) - sum(packetLength(packetDropped))))"
attr title "queue bit length"
attr unit b
vector 109 NetworkSlicing.iUpf.ppp[0].queue queueingTime:vector ETV
attr interpolationmode none
attr recordingmode vector
attr source queueingTime(packetPulled)
attr title "queueing times"
attr unit s
vector 110 NetworkSlicing.iUpf.ppp[0].queue incomingPacketLengths:vector ETV
attr interpolationmode none
attr recordingmode vector
attr source packetLength(packetPushStarted)
attr title "incoming packet lengths"
attr unit b
vector 111 NetworkSlicing.iUpf.ppp[0].queue incomingDataRate:vector ETV
attr interpolationmode linear
attr recordingmode vector
attr source throughput(packetPushStarted)
attr title "incoming datarate"
attr unit bps
vector 112 NetworkSlicing.iUpf.ppp[0].queue outgoingPacketLengths:vector ETV
attr interpolationmode none
attr recordingmode vector
attr source packetLength(packetPulled)
attr title "outgoing packet lengths"
attr unit b
vector 113 NetworkSlicing.iUpf.ppp[0].queue outgoingDataRate:vector ETV
attr interpolationmode linear
attr recordingmode vector
attr source throughput(packetPulled)
attr title "outgoing datarate"
attr unit bps
vector 114 NetworkSlicing.iUpf.ppp[0].queue droppedPacketLengthsQueueOverflow:vector ETV
attr interpolationmode none
attr recordingmode vector
attr source packetLength(packetDropReasonIsQueueOverflow(packetDropped))
attr title "dropped packet lengths: queue overflow"
attr unit b
vector 115 NetworkSlicing.iUpf.ppp[0].queue flowQueueingTime:vector ETV
attr interpolationmode none
attr recordingmode vector
attr source queueingTime(demuxFlow(packetPulled))
attr title "flow queueing times"
attr unit s
vector 116 NetworkSlicing.iUpf.ppp[0].queue flowIncomingDataRate:vector ETV
attr interpolationmode linear
attr recordingmode vector
attr source throughput(flowPacketLength(demuxFlow(packetPushStarted)))
attr title "flow specific incoming data rate"
attr unit bps
vector 117 NetworkSlicing.iUpf.ppp[0].queue flowOutgoingDataRate:vector ETV
attr interpolationmode linear
attr recordingmode vector
attr source throughput(flowPacketLength(demuxFlow(packetPulled)))
attr title "flow specific outgoing data rate"
attr unit bps
vector 118 NetworkSlicing.iUpf.ppp[0].ppp transmissionState:vector ETV
attr interpolationmode sample-hold
attr recordingmode vector
attr source transmissionStateChanged
attr title "tx state"
vector 119 NetworkSlicing.iUpf.ppp[0].ppp txPk:vector(packetBytes) ETV
attr interpolationmode none
attr recordingmode vector(packetBytes)
attr source packetSentToLower
attr title "packets transmitted, packetBytes"
vector 120 NetworkSlicing.iUpf.ppp[0].ppp rxPkOk:vector(packetBytes) ETV
attr interpolationmode none
attr recordingmode vector(packetBytes)
attr source rxPkOk
attr title "packets received OK, packetBytes"
vector 121 NetworkSlicing.iUpf.ppp[0].ppp packetDropIncorrectlyReceived:vector(packetBytes) ETV
attr interpolationmode none
attr recordingmode vector(packetBytes)
attr source packetDropReasonIsIncorrectlyReceived(packetDropped)
attr title "packet drop: incorrectly received, packetBytes"
vector 122 NetworkSlicing.iUpf.ppp[0].ppp packetDropInterfaceDown:vector(packetBytes) ETV
attr interpolationmode none
attr recordingmode vector(packetBytes)
attr source packetDropReasonIsInterfaceDown(packetDropped)
attr title "packet drop: interface down, packetBytes"
vector 123 NetworkSlicing.iUpf.ppp[0].ppp rcvdPkFromHl:vector(packetBytes) ETV
attr interpolationmode none
attr recordingmode vector(packetBytes)
attr source packetReceivedFromUpper
attr title "packets received from higher layer, packetBytes"
vector 124 NetworkSlicing.iUpf.ppp[0].ppp passedUpPk:vector(packetBytes) ETV
attr interpolationmode none
attr recordingmode vector(packetBytes)
attr source packetSentToUpper
attr title "packets passed to higher layer, packetBytes"
vector 125 NetworkSlicing.iUpf.ppp[0] packetDropInterfaceDown:vector(packetBytes) ETV
attr interpolationmode none
attr recordingmode vector(packetBytes)
attr source packetDropReasonIsInterfaceDown(packetDropped)
attr title "packet drops: interface down, packetBytes"
vector 126 NetworkSlicing.iUpf.ppp[0] packetDropNoCarrier:vector(packetBytes) ETV
attr interpolationmode none
attr recordingmode vector(packetBytes)
attr source packetDropReasonIsNoCarrier(packetDropped)
attr title "packet drops: no carrier, packetBytes"
vector 127 NetworkSlicing.iUpf.ppp[1].queue queueLength:vector ETV
attr autoWarmupFilter false
attr interpolationmode sample-hold
attr recordingmode vector
attr source "warmup(atomic(constant0(packetPushEnded) + count(packetPushStarted) - count(packetPulled) - count(packetRemoved) - count(packetDropped)))"
attr title "queue length"
attr unit pk
vector 128 NetworkSlicing.iUpf.ppp[1].queue queueBitLength:vector ETV
attr autoWarmupFilter false
attr interpolationmode sample-hold
attr recordingmode vector
attr source "warmup(atomic(constant0(packetPushEnded) + sum(packetLength(packetPushStarted)) - sum(packetLength(packetPulled)) - sum(packetLength(packetRemoved)) - sum(packetLength(packetDropped))))"
attr title "queue bit length"
attr unit b
vector 129 NetworkSlicing.iUpf.ppp[1].queue queueingTime:vector ETV
attr interpolationmode none
attr recordingmode vector
attr source queueingTime(packetPulled)
attr title "queueing times"
attr unit s
vector 130 NetworkSlicing.iUpf.ppp[1].queue incomingPacketLengths:vector ETV
attr interpolationmode none
attr recordingmode vector
attr source packetLength(packetPushStarted)
attr title "incoming packet lengths"
attr unit b
vector 131 NetworkSlicing.iUpf.ppp[1].queue incomingDataRate:vector ETV
attr interpolationmode linear
attr recordingmode vector
attr source throughput(packetPushStarted)
attr title "incoming datarate"
attr unit bps
vector 132 NetworkSlicing.iUpf.ppp[1].queue outgoingPacketLengths:vector ETV
attr interpolationmode none
attr recordingmode vector
attr source packetLength(packetPulled)
attr title "outgoing packet lengths"
attr unit b
vector 133 NetworkSlicing.iUpf.ppp[1].queue outgoingDataRate:vector ETV
attr interpolationmode linear
attr recordingmode vector
attr source throughput(packetPulled)
attr title "outgoing datarate"
attr unit bps
vector 134 NetworkSlicing.iUpf.ppp[1].queue droppedPacketLengthsQueueOverflow:vector ETV
attr interpolationmode none
attr recordingmode vector
attr source packetLength(packetDropReasonIsQueueOverflow(packetDropped))
attr title "dropped packet lengths: queue overflow"
attr unit b
vector 135 NetworkSlicing.iUpf.ppp[1].queue flowQueueingTime:vector ETV
attr interpolationmode none
attr recordingmode vector
attr source queueingTime(demuxFlow(packetPulled))
attr title "flow queueing times"
attr unit s
vector 136 NetworkSlicing.iUpf.ppp[1].queue flowIncomingDataRate:vector ETV
attr interpolationmode linear
attr recordingmode vector
attr source throughput(flowPacketLength(demuxFlow(packetPushStarted)))
attr title "flow specific incoming data rate"
attr unit bps
vector 137 NetworkSlicing.iUpf.ppp[1].queue flowOutgoingDataRate:vector ETV
attr interpolationmode linear
attr recordingmode vector
attr source throughput(flowPacketLength(demuxFlow(packetPulled)))
attr title "flow specific outgoing data rate"
attr unit bps
vector 138 NetworkSlicing.iUpf.ppp[1].ppp transmissionState:vector ETV
attr interpolationmode sample-hold
attr recordingmode vector
attr source transmissionStateChanged
attr title "tx state"
vector 139 NetworkSlicing.iUpf.ppp[1].ppp txPk:vector(packetBytes) ETV
attr interpolationmode none
attr recordingmode vector(packetBytes)
attr source packetSentToLower
attr title "packets transmitted, packetBytes"
vector 140 NetworkSlicing.iUpf.ppp[1].ppp rxPkOk:vector(packetBytes) ETV
attr interpolationmode none
attr recordingmode vector(packetBytes)
attr source rxPkOk
attr title "packets received OK, packetBytes"
vector 141 NetworkSlicing.iUpf.ppp[1].ppp packetDropIncorrectlyReceived:vector(packetBytes) ETV
attr interpolationmode none
attr recordingmode vector(packetBytes)
attr source packetDropReasonIsIncorrectlyReceived(packetDropped)
attr title "packet drop: incorrectly received, packetBytes"
vector 142 NetworkSlicing.iUpf.ppp[1].ppp packetDropInterfaceDown:vector(packetBytes) ETV
attr interpolationmode none
attr recordingmode vector(packetBytes)
attr source packetDropReasonIsInterfaceDown(packetDropped)
attr title "packet drop: interface down, packetBytes"
vector 143 NetworkSlicing.iUpf.ppp[1].ppp rcvdPkFromHl:vector(packetBytes) ETV
attr interpolationmode none
attr recordingmode vector(packetBytes)
attr source packetReceivedFromUpper
attr title "packets received from higher layer, packetBytes"
vector 144 NetworkSlicing.iUpf.ppp[1].ppp passedUpPk:vector(packetBytes) ETV
attr interpolationmode none
attr recordingmode vector(packetBytes)
attr source packetSentToUpper
attr title "packets passed to higher layer, packetBytes"
vector 145 NetworkSlicing.iUpf.ppp[1] packetDropInterfaceDown:vector(packetBytes) ETV
attr interpolationmode none
attr recordingmode vector(packetBytes)
attr source packetDropReasonIsInterfaceDown(packetDropped)
attr title "packet drops: interface down, packetBytes"
vector 146 NetworkSlicing.iUpf.ppp[1] packetDropNoCarrier:vector(packetBytes) ETV
attr interpolationmode none
attr recordingmode vector(packetBytes)
attr source packetDropReasonIsNoCarrier(packetDropped)
attr title "packet drops: no carrier, packetBytes"
vector 147 NetworkSlicing.iUpf.ipv4.ip packetDropAddressResolutionFailed:vector(packetBytes) ETV
attr interpolationmode none
attr recordingmode vector(packetBytes)
attr source packetDropReasonIsAddressResolutionFailed(packetDropped)
attr title "packet drop: address resolution failed, packetBytes"
vector 148 NetworkSlicing.iUpf.ipv4.ip packetDropHopLimitReached:vector(packetBytes) ETV
attr interpolationmode none
attr recordingmode vector(packetBytes)
attr source packetDropReasonIsHopLimitReached(packetDropped)
attr title "packet drop: hop limit reached, packetBytes"
vector 149 NetworkSlicing.iUpf.ipv4.ip packetDropForwardingDisabled:vector(packetBytes) ETV
attr interpolationmode none
attr recordingmode vector(packetBytes)
attr source packetDropReasonIsForwardingDisabled(packetDropped)
attr title "packet drop: forwarding disabled, packetBytes"
vector 150 NetworkSlicing.iUpf.ipv4.ip packetDropNoInterfaceFound:vector(packetBytes) ETV
attr interpolationmode none
attr recordingmode vector(packetBytes)
attr source packetDropReasonIsNoInterfaceFound(packetDropped)
attr title "packet drop: no interface found, packetBytes"
vector 151 NetworkSlicing.iUpf.ipv4.ip packetDropNoRouteFound:vector(packetBytes) ETV
attr interpolationmode none
attr recordingmode vector(packetBytes)
attr source packetDropReasonIsNoRouteFound(packetDropped)
attr title "packet drop: no route found, packetBytes"
vector 152 NetworkSlicing.iUpf.ipv4.ip packetDropUndefined:vector(packetBytes) ETV
attr interpolationmode none
attr recordingmode vector(packetBytes)
attr source packetDropReasonIsUndefined(packetDropped)
attr title "packet drop: undefined, packetBytes"
vector 153 NetworkSlicing.iUpf.ipv4.arp arpRequestSent:vector(packetBytes) ETV
attr recordingmode vector(packetBytes)
attr source arpRequestSent
attr title "ARP request sent, packetBytes"
vector 154 NetworkSlicing.iUpf.ipv4.arp arpReplySent:vector(packetBytes) ETV
attr recordingmode vector(packetBytes)
attr source arpReplySent
attr title "ARP replies sent, packetBytes"
vector 155 NetworkSlicing.iUpf.pppIf.queue queueLength:vector ETV
attr autoWarmupFilter false
attr interpolationmode sample-hold
attr recordingmode vector
attr source "warmup(atomic(constant0(packetPushEnded) + count(packetPushStarted) - count(packetPulled) - count(packetRemoved) - count(packetDropped)))"
attr title "queue length"
attr unit pk
vector 156 NetworkSlicing.iUpf.pppIf.queue queueBitLength:vector ETV
attr autoWarmupFilter false
attr interpolationmode sample-hold
attr recordingmode vector
attr source "warmup(atomic(constant0(packetPushEnded) + sum(packetLength(packetPushStarted)) - sum(packetLength(packetPulled)) - sum(packetLength(packetRemoved)) - sum(packetLength(packetDropped))))"
attr title "queue bit length"
attr unit b
vector 157 NetworkSlicing.iUpf.pppIf.queue queueingTime:vector ETV
attr interpolationmode none
attr recordingmode vector
attr source queueingTime(packetPulled)
attr title "queueing times"
attr unit s
vector 158 NetworkSlicing.iUpf.pppIf.queue incomingPacketLengths:vector ETV
attr interpolationmode none
attr recordingmode vector
attr source packetLength(packetPushStarted)
attr title "incoming packet lengths"
attr unit b
vector 159 NetworkSlicing.iUpf.pppIf.queue incomingDataRate:vector ETV
attr interpolationmode linear
attr recordingmode vector
attr source throughput(packetPushStarted)
attr title "incoming datarate"
attr unit bps
vector 160 NetworkSlicing.iUpf.pppIf.queue outgoingPacketLengths:vector ETV
attr interpolationmode none
attr recordingmode vector
attr source packetLength(packetPulled)
attr title "outgoing packet lengths"
attr unit b
vector 161 NetworkSlicing.iUpf.pppIf.queue outgoingDataRate:vector ETV
attr interpolationmode linear
attr recordingmode vector
attr source throughput(packetPulled)
attr title "outgoing datarate"
attr unit bps
vector 162 NetworkSlicing.iUpf.pppIf.queue droppedPacketLengthsQueueOverflow:vector ETV
attr interpolationmode none
attr recordingmode vector
attr source packetLength(packetDropReasonIsQueueOverflow(packetDropped))
attr title "dropped packet lengths: queue overflow"
attr unit b
vector 163 NetworkSlicing.iUpf.pppIf.queue flowQueueingTime:vector ETV
attr interpolationmode none
attr recordingmode vector
attr source queueingTime(demuxFlow(packetPulled))
attr title "flow queueing times"
attr unit s
vector 164 NetworkSlicing.iUpf.pppIf.queue flowIncomingDataRate:vector ETV
attr interpolationmode linear
attr recordingmode vector
attr source throughput(flowPacketLength(demuxFlow(packetPushStarted)))
attr title "flow specific incoming data rate"
attr unit bps
vector 165 NetworkSlicing.iUpf.pppIf.queue flowOutgoingDataRate:vector ETV
attr interpolationmode linear
attr recordingmode vector
attr source throughput(flowPacketLength(demuxFlow(packetPulled)))
attr title "flow specific outgoing data rate"
attr unit bps
vector 166 NetworkSlicing.iUpf.pppIf.ppp transmissionState:vector ETV
attr interpolationmode sample-hold
attr recordingmode vector
attr source transmissionStateChanged
attr title "tx state"
vector 167 NetworkSlicing.iUpf.pppIf.ppp txPk:vector(packetBytes) ETV
attr interpolationmode none
attr recordingmode vector(packetBytes)
attr source packetSentToLower
attr title "packets transmitted, packetBytes"
vector 168 NetworkSlicing.iUpf.pppIf.ppp rxPkOk:vector(packetBytes) ETV
attr interpolationmode none
attr recordingmode vector(packetBytes)
attr source rxPkOk
attr title "packets received OK, packetBytes"
vector 169 NetworkSlicing.iUpf.pppIf.ppp packetDropIncorrectlyReceived:vector(packetBytes) ETV
attr interpolationmode none
attr recordingmode vector(packetBytes)
attr source packetDropReasonIsIncorrectlyReceived(packetDropped)
attr title "packet drop: incorrectly received, packetBytes"
vector 170 NetworkSlicing.iUpf.pppIf.ppp packetDropInterfaceDown:vector(packetBytes) ETV
attr interpolationmode none
attr recordingmode vector(packetBytes)
attr source packetDropReasonIsInterfaceDown(packetDropped)
attr title "packet drop: interface down, packetBytes"
vector 171 NetworkSlicing.iUpf.pppIf.ppp rcvdPkFromHl:vector(packetBytes) ETV
attr interpolationmode none
attr recordingmode vector(packetBytes)
attr source packetReceivedFromUpper
attr title "packets received from higher layer, packetBytes"
vector 172 NetworkSlicing.iUpf.pppIf.ppp passedUpPk:vector(packetBytes) ETV
attr interpolationmode none
attr recordingmode vector(packetBytes)
attr source packetSentToUpper
attr title "packets passed to higher layer, packetBytes"
vector 173 NetworkSlicing.iUpf.pppIf packetDropInterfaceDown:vector(packetBytes) ETV
attr interpolationmode none
attr recordingmode vector(packetBytes)
attr source packetDropReasonIsInterfaceDown(packetDropped)
attr title "packet drops: interface down, packetBytes"
vector 174 NetworkSlicing.iUpf.pppIf packetDropNoCarrier:vector(packetBytes) ETV
attr interpolationmode none
attr recordingmode vector(packetBytes)
attr source packetDropReasonIsNoCarrier(packetDropped)
attr title "packet drops: no carrier, packetBytes"
vector 175 NetworkSlicing.iUpf.udp packetSent:vector(packetBytes) ETV
attr interpolationmode none
attr recordingmode vector(packetBytes)
attr source packetSent
attr title "packets sent, packetBytes"
vector 176 NetworkSlicing.iUpf.udp packetReceived:vector(packetBytes) ETV
attr interpolationmode none
attr recordingmode vector(packetBytes)
attr source packetReceived
attr title "packets received, packetBytes"
vector 177 NetworkSlicing.iUpf.udp passedUpPk:vector(count) ETV
attr interpolationmode none
attr recordingmode vector(count)
attr source packetSentToUpper
attr title "packets passed up, count"
vector 178 NetworkSlicing.iUpf.udp droppedPkWrongPort:vector(count) ETV
attr interpolationmode none
attr recordingmode vector(count)
attr source packetDropReasonIsNoPortFound(packetDropped)
attr title "packets dropped (wrong port), count"
vector 179 NetworkSlicing.iUpf.udp droppedPkBadChecksum:vector(count) ETV
attr interpolationmode none
attr recordingmode vector(count)
attr source packetDropReasonIsIncorrectlyReceived(packetDropped)
attr title "packets dropped (checksum error), count"
vector 180 NetworkSlicing.upf.lo[0].lo rcvdPkFromHl:vector(packetBytes) ETV
attr interpolationmode none
attr recordingmode vector(packetBytes)
attr source packetReceivedFromUpper
attr title "packets received from higher layer, packetBytes"
vector 181 NetworkSlicing.upf.lo[0].lo passedUpPk:vector(packetBytes) ETV
attr interpolationmode none
attr recordingmode vector(packetBytes)
attr source packetSentToUpper
attr title "packets passed to higher layer, packetBytes"
vector 182 NetworkSlicing.upf.lo[0] packetDropInterfaceDown:vector(packetBytes) ETV
attr interpolationmode none
attr recordingmode vector(packetBytes)
attr source packetDropReasonIsInterfaceDown(packetDropped)
attr title "packet drops: interface down, packetBytes"
vector 183 NetworkSlicing.upf.lo[0] packetDropNoCarrier:vector(packetBytes) ETV
attr interpolationmode none
attr recordingmode vector(packetBytes)
attr source packetDropReasonIsNoCarrier(packetDropped)
attr title "packet drops: no carrier, packetBytes"
vector 184 NetworkSlicing.upf.ppp[0].queue queueLength:vector ETV
attr autoWarmupFilter false
attr interpolationmode sample-hold
attr recordingmode vector
attr source "warmup(atomic(constant0(packetPushEnded) + count(packetPushStarted) - count(packetPulled) - count(packetRemoved) - count(packetDropped)))"
attr title "queue length"
attr unit pk
vector 185 NetworkSlicing.upf.ppp[0].queue queueBitLength:vector ETV
attr autoWarmupFilter false
attr interpolationmode sample-hold
attr recordingmode vector
attr source "warmup(atomic(constant0(packetPushEnded) + sum(packetLength(packetPushStarted)) - sum(packetLength(packetPulled)) - sum(packetLength(packetRemoved)) - sum(packetLength(packetDropped))))"
attr title "queue bit length"
attr unit b
vector 186 NetworkSlicing.upf.ppp[0].queue queueingTime:vector ETV
attr interpolationmode none
attr recordingmode vector
attr source queueingTime(packetPulled)
attr title "queueing times"
attr unit s
vector 187 NetworkSlicing.upf.ppp[0].queue incomingPacketLengths:vector ETV
attr interpolationmode none
attr recordingmode vector
attr source packetLength(packetPushStarted)
attr title "incoming packet lengths"
attr unit b
vector 188 NetworkSlicing.upf.ppp[0].queue incomingDataRate:vector ETV
attr interpolationmode linear
attr recordingmode vector
attr source throughput(packetPushStarted)
attr title "incoming datarate"
attr unit bps
vector 189 NetworkSlicing.upf.ppp[0].queue outgoingPacketLengths:vector ETV
attr interpolationmode none
attr recordingmode vector
attr source packetLength(packetPulled)
attr title "outgoing packet lengths"
attr unit b
vector 190 NetworkSlicing.upf.ppp[0].queue outgoingDataRate:vector ETV
attr interpolationmode linear
attr recordingmode vector
attr source throughput(packetPulled)
attr title "outgoing datarate"
attr unit bps
vector 191 NetworkSlicing.upf.ppp[0].queue droppedPacketLengthsQueueOverflow:vector ETV
attr interpolationmode none
attr recordingmode vector
attr source packetLength(packetDropReasonIsQueueOverflow(packetDropped))
attr title "dropped packet lengths: queue overflow"
attr unit b
vector 192 NetworkSlicing.upf.ppp[0].queue flowQueueingTime:vector ETV
attr interpolationmode none
attr recordingmode vector
attr source queueingTime(demuxFlow(packetPulled))
attr title "flow queueing times"
attr unit s
vector 193 NetworkSlicing.upf.ppp[0].queue flowIncomingDataRate:vector ETV
attr interpolationmode linear
attr recordingmode vector
attr source throughput(flowPacketLength(demuxFlow(packetPushStarted)))
attr title "flow specific incoming data rate"
attr unit bps
vector 194 NetworkSlicing.upf.ppp[0].queue flowOutgoingDataRate:vector ETV
attr interpolationmode linear
attr recordingmode vector
attr source throughput(flowPacketLength(demuxFlow(packetPulled)))
attr title "flow specific outgoing data rate"
attr unit bps
vector 195 NetworkSlicing.upf.ppp[0].ppp transmissionState:vector ETV
attr interpolationmode sample-hold
attr recordingmode vector
attr source transmissionStateChanged
attr title "tx state"
vector 196 NetworkSlicing.upf.ppp[0].ppp txPk:vector(packetBytes) ETV
attr interpolationmode none
attr recordingmode vector(packetBytes)
attr source packetSentToLower
attr title "packets transmitted, packetBytes"
vector 197 NetworkSlicing.upf.ppp[0].ppp rxPkOk:vector(packetBytes) ETV
attr interpolationmode none
attr recordingmode vector(packetBytes)
attr source rxPkOk
attr title "packets received OK, packetBytes"
vector 198 NetworkSlicing.upf.ppp[0].ppp packetDropIncorrectlyReceived:vector(packetBytes) ETV
attr interpolationmode none
attr recordingmode vector(packetBytes)
attr source packetDropReasonIsIncorrectlyReceived(packetDropped)
attr title "packet drop: incorrectly received, packetBytes"
vector 199 NetworkSlicing.upf.ppp[0].ppp packetDropInterfaceDown:vector(packetBytes) ETV
attr interpolationmode none
attr recordingmode vector(packetBytes)
attr source packetDropReasonIsInterfaceDown(packetDropped)
attr title "packet drop: interface down, packetBytes"
vector 200 NetworkSlicing.upf.ppp[0].ppp rcvdPkFromHl:vector(packetBytes) ETV
attr interpolationmode none
attr recordingmode vector(packetBytes)
attr source packetReceivedFromUpper
attr title "packets received from higher layer, packetBytes"
vector 201 NetworkSlicing.upf.ppp[0].ppp passedUpPk:vector(packetBytes) ETV
attr interpolationmode none
attr recordingmode vector(packetBytes)
attr source packetSentToUpper
attr title "packets passed to higher layer, packetBytes"
vector 202 NetworkSlicing.upf.ppp[0] packetDropInterfaceDown:vector(packetBytes) ETV
attr interpolationmode none
attr recordingmode vector(packetBytes)
attr source packetDropReasonIsInterfaceDown(packetDropped)
attr title "packet drops: interface down, packetBytes"
vector 203 NetworkSlicing.upf.ppp[0] packetDropNoCarrier:vector(packetBytes) ETV
attr interpolationmode none
attr recordingmode vector(packetBytes)
attr source packetDropReasonIsNoCarrier(packetDropped)
attr title "packet drops: no carrier, packetBytes"
vector 204 NetworkSlicing.upf.ipv4.ip packetDropAddressResolutionFailed:vector(packetBytes) ETV
attr interpolationmode none
attr recordingmode vector(packetBytes)
attr source packetDropReasonIsAddressResolutionFailed(packetDropped)
attr title "packet drop: address resolution failed, packetBytes"
vector 205 NetworkSlicing.upf.ipv4.ip packetDropHopLimitReached:vector(packetBytes) ETV
attr interpolationmode none
attr recordingmode vector(packetBytes)
attr source packetDropReasonIsHopLimitReached(packetDropped)
attr title "packet drop: hop limit reached, packetBytes"
vector 206 NetworkSlicing.upf.ipv4.ip packetDropForwardingDisabled:vector(packetBytes) ETV
attr interpolationmode none
attr recordingmode vector(packetBytes)
attr source packetDropReasonIsForwardingDisabled(packetDropped)
attr title "packet drop: forwarding disabled, packetBytes"
vector 207 NetworkSlicing.upf.ipv4.ip packetDropNoInterfaceFound:vector(packetBytes) ETV
attr interpolationmode none
attr recordingmode vector(packetBytes)
attr source packetDropReasonIsNoInterfaceFound(packetDropped)
attr title "packet drop: no interface found, packetBytes"
vector 208 NetworkSlicing.upf.ipv4.ip packetDropNoRouteFound:vector(packetBytes) ETV
attr interpolationmode none
attr recordingmode vector(packetBytes)
attr source packetDropReasonIsNoRouteFound(packetDropped)
attr title "packet drop: no route found, packetBytes"
vector 209 NetworkSlicing.upf.ipv4.ip packetDropUndefined:vector(packetBytes) ETV
attr interpolationmode none
attr recordingmode vector(packetBytes)
attr source packetDropReasonIsUndefined(packetDropped)
attr title "packet drop: undefined, packetBytes"
vector 210 NetworkSlicing.upf.ipv4.arp arpRequestSent:vector(packetBytes) ETV
attr recordingmode vector(packetBytes)
attr source arpRequestSent
attr title "ARP request sent, packetBytes"
vector 211 NetworkSlicing.upf.ipv4.arp arpReplySent:vector(packetBytes) ETV
attr recordingmode vector(packetBytes)
attr source arpReplySent
attr title "ARP replies sent, packetBytes"
vector 212 NetworkSlicing.upf.pppIf.queue queueLength:vector ETV
attr autoWarmupFilter false
attr interpolationmode sample-hold
attr recordingmode vector
attr source "warmup(atomic(constant0(packetPushEnded) + count(packetPushStarted) - count(packetPulled) - count(packetRemoved) - count(packetDropped)))"
attr title "queue length"
attr unit pk
vector 213 NetworkSlicing.upf.pppIf.queue queueBitLength:vector ETV
attr autoWarmupFilter false
attr interpolationmode sample-hold
attr recordingmode vector
attr source "warmup(atomic(constant0(packetPushEnded) + sum(packetLength(packetPushStarted)) - sum(packetLength(packetPulled)) - sum(packetLength(packetRemoved)) - sum(packetLength(packetDropped))))"
attr title "queue bit length"
attr unit b
vector 214 NetworkSlicing.upf.pppIf.queue queueingTime:vector ETV
attr interpolationmode none
attr recordingmode vector
attr source queueingTime(packetPulled)
attr title "queueing times"
attr unit s
vector 215 NetworkSlicing.upf.pppIf.queue incomingPacketLengths:vector ETV
attr interpolationmode none
attr recordingmode vector
attr source packetLength(packetPushStarted)
attr title "incoming packet lengths"
attr unit b
vector 216 NetworkSlicing.upf.pppIf.queue incomingDataRate:vector ETV
attr interpolationmode linear
attr recordingmode vector
attr source throughput(packetPushStarted)
attr title "incoming datarate"
attr unit bps
vector 217 NetworkSlicing.upf.pppIf.queue outgoingPacketLengths:vector ETV
attr interpolationmode none
attr recordingmode vector
attr source packetLength(packetPulled)
attr title "outgoing packet lengths"
attr unit b
vector 218 NetworkSlicing.upf.pppIf.queue outgoingDataRate:vector ETV
attr interpolationmode linear
attr recordingmode vector
attr source throughput(packetPulled)
attr title "outgoing datarate"
attr unit bps
vector 219 NetworkSlicing.upf.pppIf.queue droppedPacketLengthsQueueOverflow:vector ETV
attr interpolationmode none
attr recordingmode vector
attr source packetLength(packetDropReasonIsQueueOverflow(packetDropped))
attr title "dropped packet lengths: queue overflow"
attr unit b
vector 220 NetworkSlicing.upf.pppIf.queue flowQueueingTime:vector ETV
attr interpolationmode none
attr recordingmode vector
attr source queueingTime(demuxFlow(packetPulled))
attr title "flow queueing times"
attr unit s
vector 221 NetworkSlicing.upf.pppIf.queue flowIncomingDataRate:vector ETV
attr interpolationmode linear
attr recordingmode vector
attr source throughput(flowPacketLength(demuxFlow(packetPushStarted)))
attr title "flow specific incoming data rate"
attr unit bps
vector 222 NetworkSlicing.upf.pppIf.queue flowOutgoingDataRate:vector ETV
attr interpolationmode linear
attr recordingmode vector
attr source throughput(flowPacketLength(demuxFlow(packetPulled)))
attr title "flow specific outgoing data rate"
attr unit bps
vector 223 NetworkSlicing.upf.pppIf.ppp transmissionState:vector ETV
attr interpolationmode sample-hold
attr recordingmode vector
attr source transmissionStateChanged
attr title "tx state"
vector 224 NetworkSlicing.upf.pppIf.ppp txPk:vector(packetBytes) ETV
attr interpolationmode none
attr recordingmode vector(packetBytes)
attr source packetSentToLower
attr title "packets transmitted, packetBytes"
vector 225 NetworkSlicing.upf.pppIf.ppp rxPkOk:vector(packetBytes) ETV
attr interpolationmode none
attr recordingmode vector(packetBytes)
attr source rxPkOk
attr title "packets received OK, packetBytes"
vector 226 NetworkSlicing.upf.pppIf.ppp packetDropIncorrectlyReceived:vector(packetBytes) ETV
attr interpolationmode none
attr recordingmode vector(packetBytes)
attr source packetDropReasonIsIncorrectlyReceived(packetDropped)
attr title "packet drop: incorrectly received, packetBytes"
vector 227 NetworkSlicing.upf.pppIf.ppp packetDropInterfaceDown:vector(packetBytes) ETV
attr interpolationmode none
attr recordingmode vector(packetBytes)
attr source packetDropReasonIsInterfaceDown(packetDropped)
attr title "packet drop: interface down, packetBytes"
vector 228 NetworkSlicing.upf.pppIf.ppp rcvdPkFromHl:vector(packetBytes) ETV
attr interpolationmode none
attr recordingmode vector(packetBytes)
attr source packetReceivedFromUpper
attr title "packets received from higher layer, packetBytes"
vector 229 NetworkSlicing.upf.pppIf.ppp passedUpPk:vector(packetBytes) ETV
attr interpolationmode none
attr recordingmode vector(packetBytes)
attr source packetSentToUpper
attr title "packets passed to higher layer, packetBytes"
vector 230 NetworkSlicing.upf.pppIf packetDropInterfaceDown:vector(packetBytes) ETV
attr interpolationmode none
attr recordingmode vector(packetBytes)
attr source packetDropReasonIsInterfaceDown(packetDropped)
attr title "packet drops: interface down, packetBytes"
vector 231 NetworkSlicing.upf.pppIf packetDropNoCarrier:vector(packetBytes) ETV
attr interpolationmode none
attr recordingmode vector(packetBytes)
attr source packetDropReasonIsNoCarrier(packetDropped)
attr title "packet drops: no carrier, packetBytes"
vector 232 NetworkSlicing.upf.udp packetSent:vector(packetBytes) ETV
attr interpolationmode none
attr recordingmode vector(packetBytes)
attr source packetSent
attr title "packets sent, packetBytes"
vector 233 NetworkSlicing.upf.udp packetReceived:vector(packetBytes) ETV
attr interpolationmode none
attr recordingmode vector(packetBytes)
attr source packetReceived
attr title "packets received, packetBytes"
vector 234 NetworkSlicing.upf.udp passedUpPk:vector(count) ETV
attr interpolationmode none
attr recordingmode vector(count)
attr source packetSentToUpper
attr title "packets passed up, count"
vector 235 NetworkSlicing.upf.udp droppedPkWrongPort:vector(count) ETV
attr interpolationmode none
attr recordingmode vector(count)
attr source packetDropReasonIsNoPortFound(packetDropped)
attr title "packets dropped (wrong port), count"
vector 236 NetworkSlicing.upf.udp droppedPkBadChecksum:vector(count) ETV
attr interpolationmode none
attr recordingmode vector(count)
attr source packetDropReasonIsIncorrectlyReceived(packetDropped)
attr title "packets dropped (checksum error), count"
vector 237 NetworkSlicing.router.lo[0].lo rcvdPkFromHl:vector(packetBytes) ETV
attr interpolationmode none
attr recordingmode vector(packetBytes)
attr source packetReceivedFromUpper
attr title "packets received from higher layer, packetBytes"
vector 238 NetworkSlicing.router.lo[0].lo passedUpPk:vector(packetBytes) ETV
attr interpolationmode none
attr recordingmode vector(packetBytes)
attr source packetSentToUpper
attr title "packets passed to higher layer, packetBytes"
vector 239 NetworkSlicing.router.lo[0] packetDropInterfaceDown:vector(packetBytes) ETV
attr interpolationmode none
attr recordingmode vector(packetBytes)
attr source packetDropReasonIsInterfaceDown(packetDropped)
attr title "packet drops: interface down, packetBytes"
vector 240 NetworkSlicing.router.lo[0] packetDropNoCarrier:vector(packetBytes) ETV
attr interpolationmode none
attr recordingmode vector(packetBytes)
attr source packetDropReasonIsNoCarrier(packetDropped)
attr title "packet drops: no carrier, packetBytes"
vector 241 NetworkSlicing.router.ppp[0].queue queueLength:vector ETV
attr autoWarmupFilter false
attr interpolationmode sample-hold
attr recordingmode vector
attr source "warmup(atomic(constant0(packetPushEnded) + count(packetPushStarted) - count(packetPulled) - count(packetRemoved) - count(packetDropped)))"
attr title "queue length"
attr unit pk
vector 242 NetworkSlicing.router.ppp[0].queue queueBitLength:vector ETV
attr autoWarmupFilter false
attr interpolationmode sample-hold
attr recordingmode vector
attr source "warmup(atomic(constant0(packetPushEnded) + sum(packetLength(packetPushStarted)) - sum(packetLength(packetPulled)) - sum(packetLength(packetRemoved)) - sum(packetLength(packetDropped))))"
attr title "queue bit length"
attr unit b
vector 243 NetworkSlicing.router.ppp[0].queue queueingTime:vector ETV
attr interpolationmode none
attr recordingmode vector
attr source queueingTime(packetPulled)
attr title "queueing times"
attr unit s
vector 244 NetworkSlicing.router.ppp[0].queue incomingPacketLengths:vector ETV
attr interpolationmode none
attr recordingmode vector
attr source packetLength(packetPushStarted)
attr title "incoming packet lengths"
attr unit b
vector 245 NetworkSlicing.router.ppp[0].queue incomingDataRate:vector ETV
attr interpolationmode linear
attr recordingmode vector
attr source throughput(packetPushStarted)
attr title "incoming datarate"
attr unit bps
vector 246 NetworkSlicing.router.ppp[0].queue outgoingPacketLengths:vector ETV
attr interpolationmode none
attr recordingmode vector
attr source packetLength(packetPulled)
attr title "outgoing packet lengths"
attr unit b
vector 247 NetworkSlicing.router.ppp[0].queue outgoingDataRate:vector ETV
attr interpolationmode linear
attr recordingmode vector
attr source throughput(packetPulled)
attr title "outgoing datarate"
attr unit bps
vector 248 NetworkSlicing.router.ppp[0].queue droppedPacketLengthsQueueOverflow:vector ETV
attr interpolationmode none
attr recordingmode vector
attr source packetLength(packetDropReasonIsQueueOverflow(packetDropped))
attr title "dropped packet lengths: queue overflow"
attr unit b
vector 249 NetworkSlicing.router.ppp[0].queue flowQueueingTime:vector ETV
attr interpolationmode none
attr recordingmode vector
attr source queueingTime(demuxFlow(packetPulled))
attr title "flow queueing times"
attr unit s
vector 250 NetworkSlicing.router.ppp[0].queue flowIncomingDataRate:vector ETV
attr interpolationmode linear
attr recordingmode vector
attr source throughput(flowPacketLength(demuxFlow(packetPushStarted)))
attr title "flow specific incoming data rate"
attr unit bps
vector 251 NetworkSlicing.router.ppp[0].queue flowOutgoingDataRate:vector ETV
attr interpolationmode linear
attr recordingmode vector
attr source throughput(flowPacketLength(demuxFlow(packetPulled)))
attr title "flow specific outgoing data rate"
attr unit bps
vector 252 NetworkSlicing.router.ppp[0].ppp transmissionState:vector ETV
attr interpolationmode sample-hold
attr recordingmode vector
attr source transmissionStateChanged
attr title "tx state"
vector 253 NetworkSlicing.router.ppp[0].ppp txPk:vector(packetBytes) ETV
attr interpolationmode none
attr recordingmode vector(packetBytes)
attr source packetSentToLower
attr title "packets transmitted, packetBytes"
vector 254 NetworkSlicing.router.ppp[0].ppp rxPkOk:vector(packetBytes) ETV
attr interpolationmode none
attr recordingmode vector(packetBytes)
attr source rxPkOk
attr title "packets received OK, packetBytes"
vector 255 NetworkSlicing.router.ppp[0].ppp packetDropIncorrectlyReceived:vector(packetBytes) ETV
attr interpolationmode none
attr recordingmode vector(packetBytes)
attr source packetDropReasonIsIncorrectlyReceived(packetDropped)
attr title "packet drop: incorrectly received, packetBytes"
vector 256 NetworkSlicing.router.ppp[0].ppp packetDropInterfaceDown:vector(packetBytes) ETV
attr interpolationmode none
attr recordingmode vector(packetBytes)
attr source packetDropReasonIsInterfaceDown(packetDropped)
attr title "packet drop: interface down, packetBytes"
vector 257 NetworkSlicing.router.ppp[0].ppp rcvdPkFromHl:vector(packetBytes) ETV
attr interpolationmode none
attr recordingmode vector(packetBytes)
attr source packetReceivedFromUpper
attr title "packets received from higher layer, packetBytes"
vector 258 NetworkSlicing.router.ppp[0].ppp passedUpPk:vector(packetBytes) ETV
attr interpolationmode none
attr recordingmode vector(packetBytes)
attr source packetSentToUpper
attr title "packets passed to higher layer, packetBytes"
vector 259 NetworkSlicing.router.ppp[0] packetDropInterfaceDown:vector(packetBytes) ETV
attr interpolationmode none
attr recordingmode vector(packetBytes)
attr source packetDropReasonIsInterfaceDown(packetDropped)
attr title "packet drops: interface down, packetBytes"
vector 260 NetworkSlicing.router.ppp[0] packetDropNoCarrier:vector(packetBytes) ETV
attr interpolationmode none
attr recordingmode vector(packetBytes)
attr source packetDropReasonIsNoCarrier(packetDropped)
attr title "packet drops: no carrier, packetBytes"
vector 261 NetworkSlicing.router.ppp[1].queue queueLength:vector ETV
attr autoWarmupFilter false
attr interpolationmode sample-hold
attr recordingmode vector
attr source "warmup(atomic(constant0(packetPushEnded) + count(packetPushStarted) - count(packetPulled) - count(packetRemoved) - count(packetDropped)))"
attr title "queue length"
attr unit pk
vector 262 NetworkSlicing.router.ppp[1].queue queueBitLength:vector ETV
attr autoWarmupFilter false
attr interpolationmode sample-hold
attr recordingmode vector
attr source "warmup(atomic(constant0(packetPushEnded) + sum(packetLength(packetPushStarted)) - sum(packetLength(packetPulled)) - sum(packetLength(packetRemoved)) - sum(packetLength(packetDropped))))"
attr title "queue bit length"
attr unit b
vector 263 NetworkSlicing.router.ppp[1].queue queueingTime:vector ETV
attr interpolationmode none
attr recordingmode vector
attr source queueingTime(packetPulled)
attr title "queueing times"
attr unit s
vector 264 NetworkSlicing.router.ppp[1].queue incomingPacketLengths:vector ETV
attr interpolationmode none
attr recordingmode vector
attr source packetLength(packetPushStarted)
attr title "incoming packet lengths"
attr unit b
vector 265 NetworkSlicing.router.ppp[1].queue incomingDataRate:vector ETV
attr interpolationmode linear
attr recordingmode vector
attr source throughput(packetPushStarted)
attr title "incoming datarate"
attr unit bps
vector 266 NetworkSlicing.router.ppp[1].queue outgoingPacketLengths:vector ETV
attr interpolationmode none
attr recordingmode vector
attr source packetLength(packetPulled)
attr title "outgoing packet lengths"
attr unit b
vector 267 NetworkSlicing.router.ppp[1].queue outgoingDataRate:vector ETV
attr interpolationmode linear
attr recordingmode vector
attr source throughput(packetPulled)
attr title "outgoing datarate"
attr unit bps
vector 268 NetworkSlicing.router.ppp[1].queue droppedPacketLengthsQueueOverflow:vector ETV
attr interpolationmode none
attr recordingmode vector
attr source packetLength(packetDropReasonIsQueueOverflow(packetDropped))
attr title "dropped packet lengths: queue overflow"
attr unit b
vector 269 NetworkSlicing.router.ppp[1].queue flowQueueingTime:vector ETV
attr interpolationmode none
attr recordingmode vector
attr source queueingTime(demuxFlow(packetPulled))
attr title "flow queueing times"
attr unit s
vector 270 NetworkSlicing.router.ppp[1].queue flowIncomingDataRate:vector ETV
attr interpolationmode linear
attr recordingmode vector
attr source throughput(flowPacketLength(demuxFlow(packetPushStarted)))
attr title "flow specific incoming data rate"
attr unit bps
vector 271 NetworkSlicing.router.ppp[1].queue flowOutgoingDataRate:vector ETV
attr interpolationmode linear
attr recordingmode vector
attr source throughput(flowPacketLength(demuxFlow(packetPulled)))
attr title "flow specific outgoing data rate"
attr unit bps
vector 272 NetworkSlicing.router.ppp[1].ppp transmissionState:vector ETV
attr interpolationmode sample-hold
attr recordingmode vector
attr source transmissionStateChanged
attr title "tx state"
vector 273 NetworkSlicing.router.ppp[1].ppp txPk:vector(packetBytes) ETV
attr interpolationmode none
attr recordingmode vector(packetBytes)
attr source packetSentToLower
attr title "packets transmitted, packetBytes"
vector 274 NetworkSlicing.router.ppp[1].ppp rxPkOk:vector(packetBytes) ETV
attr interpolationmode none
attr recordingmode vector(packetBytes)
attr source rxPkOk
attr title "packets received OK, packetBytes"
vector 275 NetworkSlicing.router.ppp[1].ppp packetDropIncorrectlyReceived:vector(packetBytes) ETV
attr interpolationmode none
attr recordingmode vector(packetBytes)
attr source packetDropReasonIsIncorrectlyReceived(packetDropped)
attr title "packet drop: incorrectly received, packetBytes"
vector 276 NetworkSlicing.router.ppp[1].ppp packetDropInterfaceDown:vector(packetBytes) ETV
attr interpolationmode none
attr recordingmode vector(packetBytes)
attr source packetDropReasonIsInterfaceDown(packetDropped)
attr title "packet drop: interface down, packetBytes"
vector 277 NetworkSlicing.router.ppp[1].ppp rcvdPkFromHl:vector(packetBytes) ETV
attr interpolationmode none
attr recordingmode vector(packetBytes)
attr source packetReceivedFromUpper
attr title "packets received from higher layer, packetBytes"
vector 278 NetworkSlicing.router.ppp[1].ppp passedUpPk:vector(packetBytes) ETV
attr interpolationmode none
attr recordingmode vector(packetBytes)
attr source packetSentToUpper
attr title "packets passed to higher layer, packetBytes"
vector 279 NetworkSlicing.router.ppp[1] packetDropInterfaceDown:vector(packetBytes) ETV
attr interpolationmode none
attr recordingmode vector(packetBytes)
attr source packetDropReasonIsInterfaceDown(packetDropped)
attr title "packet drops: interface down, packetBytes"
vector 280 NetworkSlicing.router.ppp[1] packetDropNoCarrier:vector(packetBytes) ETV
attr interpolationmode none
attr recordingmode vector(packetBytes)
attr source packetDropReasonIsNoCarrier(packetDropped)
attr title "packet drops: no carrier, packetBytes"
vector 281 NetworkSlicing.router.ppp[2].queue queueLength:vector ETV
attr autoWarmupFilter false
attr interpolationmode sample-hold
attr recordingmode vector
attr source "warmup(atomic(constant0(packetPushEnded) + count(packetPushStarted) - count(packetPulled) - count(packetRemoved) - count(packetDropped)))"
attr title "queue length"
attr unit pk
vector 282 NetworkSlicing.router.ppp[2].queue queueBitLength:vector ETV
attr autoWarmupFilter false
attr interpolationmode sample-hold
attr recordingmode vector
attr source "warmup(atomic(constant0(packetPushEnded) + sum(packetLength(packetPushStarted)) - sum(packetLength(packetPulled)) - sum(packetLength(packetRemoved)) - sum(packetLength(packetDropped))))"
attr title "queue bit length"
attr unit b
vector 283 NetworkSlicing.router.ppp[2].queue queueingTime:vector ETV
attr interpolationmode none
attr recordingmode vector
attr source queueingTime(packetPulled)
attr title "queueing times"
attr unit s
vector 284 NetworkSlicing.router.ppp[2].queue incomingPacketLengths:vector ETV
attr interpolationmode none
attr recordingmode vector
attr source packetLength(packetPushStarted)
attr title "incoming packet lengths"
attr unit b
vector 285 NetworkSlicing.router.ppp[2].queue incomingDataRate:vector ETV
attr interpolationmode linear
attr recordingmode vector
attr source throughput(packetPushStarted)
attr title "incoming datarate"
attr unit bps
vector 286 NetworkSlicing.router.ppp[2].queue outgoingPacketLengths:vector ETV
attr interpolationmode none
attr recordingmode vector
attr source packetLength(packetPulled)
attr title "outgoing packet lengths"
attr unit b
vector 287 NetworkSlicing.router.ppp[2].queue outgoingDataRate:vector ETV
attr interpolationmode linear
attr recordingmode vector
attr source throughput(packetPulled)
attr title "outgoing datarate"
attr unit bps
vector 288 NetworkSlicing.router.ppp[2].queue droppedPacketLengthsQueueOverflow:vector ETV
attr interpolationmode none
attr recordingmode vector
attr source packetLength(packetDropReasonIsQueueOverflow(packetDropped))
attr title "dropped packet lengths: queue overflow"
attr unit b
vector 289 NetworkSlicing.router.ppp[2].queue flowQueueingTime:vector ETV
attr interpolationmode none
attr recordingmode vector
attr source queueingTime(demuxFlow(packetPulled))
attr title "flow queueing times"
attr unit s
vector 290 NetworkSlicing.router.ppp[2].queue flowIncomingDataRate:vector ETV
attr interpolationmode linear
attr recordingmode vector
attr source throughput(flowPacketLength(demuxFlow(packetPushStarted)))
attr title "flow specific incoming data rate"
attr unit bps
vector 291 NetworkSlicing.router.ppp[2].queue flowOutgoingDataRate:vector ETV
attr interpolationmode linear
attr recordingmode vector
attr source throughput(flowPacketLength(demuxFlow(packetPulled)))
attr title "flow specific outgoing data rate"
attr unit bps
vector 292 NetworkSlicing.router.ppp[2].ppp transmissionState:vector ETV
attr interpolationmode sample-hold
attr recordingmode vector
attr source transmissionStateChanged
attr title "tx state"
vector 293 NetworkSlicing.router.ppp[2].ppp txPk:vector(packetBytes) ETV
attr interpolationmode none
attr recordingmode vector(packetBytes)
attr source packetSentToLower
attr title "packets transmitted, packetBytes"
vector 294 NetworkSlicing.router.ppp[2].ppp rxPkOk:vector(packetBytes) ETV
attr interpolationmode none
attr recordingmode vector(packetBytes)
attr source rxPkOk
attr title "packets received OK, packetBytes"
vector 295 NetworkSlicing.router.ppp[2].ppp packetDropIncorrectlyReceived:vector(packetBytes) ETV
attr interpolationmode none
attr recordingmode vector(packetBytes)
attr source packetDropReasonIsIncorrectlyReceived(packetDropped)
attr title "packet drop: incorrectly received, packetBytes"
vector 296 NetworkSlicing.router.ppp[2].ppp packetDropInterfaceDown:vector(packetBytes) ETV
attr interpolationmode none
attr recordingmode vector(packetBytes)
attr source packetDropReasonIsInterfaceDown(packetDropped)
attr title "packet drop: interface down, packetBytes"
vector 297 NetworkSlicing.router.ppp[2].ppp rcvdPkFromHl:vector(packetBytes) ETV
attr interpolationmode none
attr recordingmode vector(packetBytes)
attr source packetReceivedFromUpper
attr title "packets received from higher layer, packetBytes"
vector 298 NetworkSlicing.router.ppp[2].ppp passedUpPk:vector(packetBytes) ETV
attr interpolationmode none
attr recordingmode vector(packetBytes)
attr source packetSentToUpper
attr title "packets passed to higher layer, packetBytes"
vector 299 NetworkSlicing.router.ppp[2] packetDropInterfaceDown:vector(packetBytes) ETV
attr interpolationmode none
attr recordingmode vector(packetBytes)
attr source packetDropReasonIsInterfaceDown(packetDropped)
attr title "packet drops: interface down, packetBytes"
vector 300 NetworkSlicing.router.ppp[2] packetDropNoCarrier:vector(packetBytes) ETV
attr interpolationmode none
attr recordingmode vector(packetBytes)
attr source packetDropReasonIsNoCarrier(packetDropped)
attr title "packet drops: no carrier, packetBytes"
vector 301 NetworkSlicing.router.ppp[3].queue queueLength:vector ETV
attr autoWarmupFilter false
attr interpolationmode sample-hold
attr recordingmode vector
attr source "warmup(atomic(constant0(packetPushEnded) + count(packetPushStarted) - count(packetPulled) - count(packetRemoved) - count(packetDropped)))"
attr title "queue length"
attr unit pk
vector 302 NetworkSlicing.router.ppp[3].queue queueBitLength:vector ETV
attr autoWarmupFilter false
attr interpolationmode sample-hold
attr recordingmode vector
attr source "warmup(atomic(constant0(packetPushEnded) + sum(packetLength(packetPushStarted)) - sum(packetLength(packetPulled)) - sum(packetLength(packetRemoved)) - sum(packetLength(packetDropped))))"
attr title "queue bit length"
attr unit b
vector 303 NetworkSlicing.router.ppp[3].queue queueingTime:vector ETV
attr interpolationmode none
attr recordingmode vector
attr source queueingTime(packetPulled)
attr title "queueing times"
attr unit s
vector 304 NetworkSlicing.router.ppp[3].queue incomingPacketLengths:vector ETV
attr interpolationmode none
attr recordingmode vector
attr source packetLength(packetPushStarted)
attr title "incoming packet lengths"
attr unit b
vector 305 NetworkSlicing.router.ppp[3].queue incomingDataRate:vector ETV
attr interpolationmode linear
attr recordingmode vector
attr source throughput(packetPushStarted)
attr title "incoming datarate"
attr unit bps
vector 306 NetworkSlicing.router.ppp[3].queue outgoingPacketLengths:vector ETV
attr interpolationmode none
attr recordingmode vector
attr source packetLength(packetPulled)
attr title "outgoing packet lengths"
attr unit b
vector 307 NetworkSlicing.router.ppp[3].queue outgoingDataRate:vector ETV
attr interpolationmode linear
attr recordingmode vector
attr source throughput(packetPulled)
attr title "outgoing datarate"
attr unit bps
vector 308 NetworkSlicing.router.ppp[3].queue droppedPacketLengthsQueueOverflow:vector ETV
attr interpolationmode none
[...]
388	1102394285 1140630 600568199 602949034 1589.6270044976 1595.9290099416 32768 1290 1290 42270720 54529228800
386	1103534915 1465248 600568199 602949034 1589.6270044976 1595.9290099416 32768 0.004137151239 688.22179013233 41887.403295694 7225472.1261877
389	1105000163 1206166 600568199 602949034 1589.6270044976 1595.9290099416 32768 450735 797941 26068364006 2.0740332491157e+16
388	1106206329 1140627 602949390 605332927 1595.9300044976 1602.2350044976 32768 1290 1290 42270720 54529228800
386	1107346956 1465091 602949390 605332927 1595.9300044976 1602.2350044976 32768 0.004151060009 688.22078468833 40383.814900166 6748491.9176017
389	1108812047 1206163 602949390 605332927 1595.9300044976 1602.2350044976 32768 453976 801086 26172434032 2.0906129132303e+16
388	1110018210 1140629 605332946 607711712 1602.2350055864 1608.547007764 32768 1290 1290 42270720 54529228800
386	1111158839 1465187 605332946 607711712 1602.2350055864 1608.547007764 32768 0.004154326409 688.22079122113 41981.928416877 7226211.09604
389	1112624026 1206165 605332946 607711712 1602.2350055864 1608.547007764 32768 457016 804255 26275028944 2.1070458678699e+16
388	1113830191 1140625 607711721 610097798 1608.5470088528 1614.8600055864 32768 1290 1290 42270720 54529228800
386	1114970816 1465164 607711721 610097798 1608.5470088528 1614.8600055864 32768 0.004138240039 688.22378904353 41794.400194332 7226777.8506288
389	1116435980 1206161 607711721 610097798 1608.5470088528 1614.8600055864 32768 460278 807400 26378485031 2.1236696122496e+16
388	1117642141 1140631 610097821 612479713 1614.8600066752 1621.1700088528 32768 1290 1290 42270720 54529228800
386	1118782772 1465205 610097821 612479713 1614.8600066752 1621.1700088528 32768 0.004137151239 688.22479013233 40621.374283249 6749959.4353591
389	1120247977 1206167 610097821 612479713 1614.8600066752 1621.1700088528 32768 463518 810564 26482471663 2.1404327900583e+16
388	1121454144 1140629 612480039 614867611 1621.1710044976 1627.475007764 32768 1290 1290 42270720 54529228800
386	1122594773 1465126 612480039 614867611 1621.1710044976 1627.475007764 32768 0.004136062439 688.22878468833 41217.863012456 7223628.4823361
389	1124059899 1206165 612480039 614867611 1621.1710044976 1627.475007764 32768 466556 813714 26585510473 2.1571318392749e+16
429	1125266064 1100275 601184177 615163325 1591.254008316 1628.2530085776 32768 292 292 9568256 2793930752
427	1126366339 1458959 601184177 615163325 1591.254008316 1628.2530085776 32768 0.004036991008 686.65245390666 482930.77586693 330944109.04975
430	1127825298 1197877 601184177 615163325 1591.254008316 1628.2530085776 32768 60284 108549 3483689007 3.7182037039471e+14
388	1129023175 1140637 614867953 617258585 1627.4760044976 1633.790007764 32768 1290 1290 42270720 54529228800
386	1130163812 1465207 614867953 617258585 1627.4760044976 1633.790007764 32768 0.004134973639 688.23179013233 41004.516102438 6753004.5083688
389	1131629019 1206173 614867953 617258585 1627.4760044976 1633.790007764 32768 469797 816877 26689120838 2.1739651647675e+16
388	1132835192 1140635 617258608 619635860 1633.7900088528 1640.0960099416 32768 1290 1290 42270720 54529228800
386	1133975827 1465128 617258608 619635860 1633.7900088528 1640.0960099416 32768 0.004137151239 688.22879013233 41061.1946722 7220808.750848
389	1135440955 1206171 617258608 619635860 1633.7900088528 1640.0960099416 32768 472835 820019 26792386717 2.1908312286679e+16
388	1136647126 1140629 619636121 622016353 1640.0970044976 1646.3990088528 32768 1290 1290 42270720 54529228800
386	1137787755 1465208 619636121 622016353 1640.0970044976 1646.3990088528 32768 0.004136062439 688.22579013233 41147.714254379 6752232.20562
389	1139252963 1206165 619636121 622016353 1640.0970044976 1646.3990088528 32768 476077 823171 26895647102 2.2077380443608e+16
388	1140459128 1140644 622016358 624398707 1646.3990099416 1652.7130066752 32768 1290 1290 42270720 54529228800
386	1141599772 1465267 622016358 624398707 1646.3990099416 1652.7130066752 32768 0.004133884839 688.22579013233 41668.895180305 7225565.9164643
389	1143065039 1206180 622016358 624398707 1646.3990099416 1652.7130066752 32768 479116 826337 26998763163 2.224709545124e+16
388	1144271219 1140632 624398716 626777772 1652.713007764 1659.0210066752 32768 1290 1290 42270720 54529228800
386	1145411851 1465263 624398716 626777772 1652.713007764 1659.0210066752 32768 0.004132796039 688.22079013233 41258.345912773 6748048.3253099
389	1146877114 1206168 624398716 626777772 1652.713007764 1659.0210066752 32768 482381 829484 27102368087 2.2418031964769e+16
429	1148083282 1100231 615163335 629130364 1628.2530088392 1665.2500085776 32768 292 292 9568256 2793930752
427	1149183513 1458915 615163335 629130364 1628.2530088392 1665.2500085776 32768 0.004079025373 686.65245390666 482941.31237125 330944171.7264
430	1150642428 1197833 615163335 629130364 1628.2530088392 1665.2500085776 32768 62750 111014 3564515466 3.8920562779913e+14
388	1151840261 1140631 626777799 629155290 1659.021007764 1665.3160055864 32768 1290 1290 42270720 54529228800
386	1152980892 1465338 626777799 629155290 1659.021007764 1665.3160055864 32768 0.004153237609 688.22279013233 42887.715210272 7221781.024476
389	1154446230 1206167 626777799 629155290 1659.021007764 1665.3160055864 32768 485397 832634 27204798381 2.2587909934094e+16
388	1155652397 1140638 629155313 631533122 1665.3160066752 1671.6200055864 32768 1290 1290 42270720 54529228800
386	1156793035 1464999 629155313 631533122 1665.3160066752 1671.6200055864 32768 0.004133884839 688.21779013233 42840.053532241 7226324.7867649
389	1158258034 1206174 629155313 631533122 1665.3160066752 1671.6200055864 32768 488662 835781 27307988269 2.275957600661e+16
388	1159464208 1140635 631533137 633906079 1671.6200066752 1677.9200066752 32768 1290 1290 42270720 54529228800
386	1160604843 1465070 631533137 633906079 1671.6200066752 1677.9200066752 32768 0.004154326409 688.21779122113 41705.603801627 6754131.0260956
389	1162069913 1206171 631533137 633906079 1671.6200066752 1677.9200066752 32768 491902 838942 27411856651 2.2932910467851e+16
388	1163276084 1140636 633906088 636285384 1677.920007764 1684.2230066752 32768 1290 1290 42270720 54529228800
386	1164416720 1465168 633906088 636285384 1677.920007764 1684.2230066752 32768 0.004153237609 688.21479013233 41937.799729063 7226814.9280006
389	1165881888 1206172 633906088 636285384 1677.920007764 1684.2230066752 32768 494942 842076 27514959008 2.3105851403852e+16
388	1167088060 1140636 636285403 638665957 1684.223007764 1690.5250044976 32768 1290 1290 42270720 54529228800
386	1168228696 1465268 636285403 638665957 1684.223007764 1690.5250044976 32768 0.004136062439 688.21479122113 40805.113371061 6749843.9930282
389	1169693964 1206172 636285403 638665957 1684.223007764 1690.5250044976 32768 498184 845245 27618786906 2.3280428305643e+16
388	1170900136 1140630 638665976 641039344 1690.5250055864 1696.8220055864 32768 1290 1290 42270720 54529228800
386	1172040766 1465164 638665976 641039344 1690.5250055864 1696.8220055864 32768 0.004152148809 688.21379013233 42231.156449096 7220805.2705935
389	1173505930 1206166 638665976 641039344 1690.5250055864 1696.8220055864 32768 501222 848389 27721324117 2.3453715197111e+16
429	1174712096 1100248 629130750 643088120 1665.251008316 1702.250008316 32768 292 292 9568256 2793930752
427	1175812344 1458932 629130750 643088120 1665.251008316 1702.250008316 32768 0.004012882927 686.65245390666 482947.99170224 330944295.59089
430	1177271276 1197850 629130750 643088120 1665.251008316 1702.250008316 32768 65219 113481 3645341983 4.0698963520525e+14
388	1178469126 1140627 641039359 643420106 1696.8220066752 1703.1270055864 32768 1290 1290 42270720 54529228800
386	1179609753 1465086 641039359 643420106 1696.8220066752 1703.1270055864 32768 0.004155415209 688.21479013233 40826.751784948 6751911.8855446
389	1181074839 1206163 641039359 643420106 1696.8220066752 1703.1270055864 32768 504485 851544 27825214878 2.3629708827269e+16
388	1182281002 1140632 643420121 645793744 1703.1270066752 1709.4210055864 32768 1290 1290 42270720 54529228800
386	1183421634 1465179 643420121 645793744 1703.1270066752 1709.4210055864 32768 0.004137151239 688.21379122113 41561.379383921 7223048.9624517
389	1184886813 1206168 643420121 645793744 1703.1270066752 1709.4210055864 32768 507501 854679 27928088150 2.3804860851268e+16
388	1186092981 1140635 645793775 648180257 1709.4210066752 1715.7310066752 32768 1290 1290 42270720 54529228800
386	1187233616 1465115 645793775 648180257 1709.4210066752 1715.7310066752 32768 0.004132796039 688.21179122113 40311.354184164 6751394.0830433
389	1188698731 1206171 645793775 648180257 1709.4210066752 1715.7310066752 32768 510765 857837 28031930929 2.3982082821138e+16
388	1189904902 1140629 648180280 650564723 1715.731007764 1722.0410088528 32768 1290 1290 42270720 54529228800
386	1191045531 1465198 648180280 650564723 1715.731007764 1722.0410088528 32768 0.004134973639 688.21179122113 41523.857329469 7223521.2841103
389	1192510729 1206165 648180280 650564723 1715.731007764 1722.0410088528 32768 513804 860992 28134754567 2.4158447656384e+16
388	1193716894 1140630 650565070 652943518 1722.0420044976 1728.3360099416 32768 1290 1290 42270720 54529228800
386	1194857524 1465186 650565070 652943518 1722.0420044976 1728.3360099416 32768 0.004137151239 688.21179013233 40836.387364535 6750852.338197
389	1196322710 1206166 650565070 652943518 1722.0420044976 1728.3360099416 32768 517046 864149 28238305227 2.4336475091203e+16
388	1197528876 1140635 652943818 655317681 1728.3370044976 1734.637007764 32768 1290 1290 42270720 54529228800
386	1198669511 1465222 652943818 655317681 1728.3370044976 1734.637007764 32768 0.004154326409 688.21179122113 41839.093846449 7220096.440891
389	1200134733 1206171 652943818 655317681 1728.3370044976 1734.637007764 32768 520084 867275 28341004661 2.4513919571122e+16
429	1201340904 1100352 643088474 657060827 1702.251008316 1739.2470072272 32768 292 292 9568256 2793930752
427	1202441256 1459035 643088474 657060827 1702.251008316 1739.2470072272 32768 0.004079548573 686.65245390666 482939.70089958 330943986.09536
430	1203900291 1197954 643088474 657060827 1702.251008316 1739.2470072272 32768 67685 115948 3726168457 4.2517237034167e+14
388	1205098245 1140634 655317686 657701040 1734.6370088528 1740.9440055864 32768 1290 1290 42270720 54529228800
386	1206238879 1465117 655317686 657701040 1734.6370088528 1740.9440055864 32768 0.004136062439 688.20979230993 41056.174000254 6752282.9020491
389	1207703996 1206170 655317686 657701040 1734.6370088528 1740.9440055864 32768 523325 870447 28444671222 2.469345317109e+16
388	1208910166 1140632 657701059 660079354 1740.9440066752 1747.2430055864 32768 1290 1290 42270720 54529228800
386	1210050798 1465207 657701059 660079354 1740.9440066752 1747.2430055864 32768 0.004151060009 688.20879122113 41613.745654597 7225194.6449324
389	1211516005 1206168 657701059 660079354 1740.9440066752 1747.2430055864 32768 526363 873598 28547706716 2.4872777434083e+16
388	1212722173 1140632 660079369 662461713 1747.2430066752 1753.5490044976 32768 1290 1290 42270720 54529228800
386	1213862805 1465213 660079369 662461713 1747.2430066752 1753.5490044976 32768 0.004133884839 688.20879013233 41539.581538024 7224949.7304584
389	1215328018 1206168 660079369 662461713 1747.2430066752 1753.5490044976 32768 529604 876753 28651016249 2.5053109493221e+16
388	1216534186 1140637 662461736 664843245 1753.5490055864 1759.858007764 32768 1290 1290 42270720 54529228800
386	1217674823 1465166 662461736 664843245 1753.5490055864 1759.858007764 32768 0.004136062439 688.21079013233 40608.198753303 6746120.3743615
389	1219139989 1206173 662461736 664843245 1753.5490055864 1759.858007764 32768 532868 879905 28754751953 2.5234724713823e+16
388	1220346162 1140628 664843250 667227754 1759.8580088528 1766.1670055864 32768 1290 1290 42270720 54529228800
386	1221486790 1465092 664843250 667227754 1759.8580088528 1766.1670055864 32768 0.004132796039 688.21079013233 41447.035660849 7224159.0379867
389	1222951882 1206164 664843250 667227754 1759.8580088528 1766.1670055864 32768 535906 883060 28857692091 2.541583285337e+16
388	1224158046 1140628 667227773 669622768 1766.1670066752 1772.4850044976 32768 1290 1290 42270720 54529228800
386	1225298674 1465165 667227773 669622768 1766.1670066752 1772.4850044976 32768 0.004134973639 688.20679122113 40968.182315367 6753956.9888669
389	1226763839 1206164 667227773 669622768 1766.1670066752 1772.4850044976 32768 539148 886200 28961401266 2.5598709864146e+16
429	1227970003 1100328 657060832 671044219 1739.2470074888 1776.243008316 32768 292 292 9568256 2793930752
427	1229070331 1459010 657060832 671044219 1739.2470074888 1776.243008316 32768 0.004036163808 686.65245390666 482931.99687413 330944232.6615
430	1230529341 1197930 657060832 671044219 1739.2470074888 1776.243008316 32768 70154 118414 3806994957 4.4375385089221e+14
388	1231727271 1140635 669622787 672007825 1772.4850055864 1778.7920088528 32768 1290 1290 42270720 54529228800
386	1232867906 1465295 669622787 672007825 1772.4850055864 1778.7920088528 32768 0.004137151239 688.20779013233 41567.262157851 7223241.6018582
389	1234333201 1206171 669622787 672007825 1772.4850055864 1778.7920088528 32768 542187 889370 29064565740 2.5781511615746e+16
388	1235539372 1140634 672008074 674387170 1778.7930044976 1785.088007764 32768 1290 1290 42270720 54529228800
386	1236680006 1465111 672008074 674387170 1778.7930044976 1785.088007764 32768 0.004134973639 688.20779230993 41348.820106781 6750180.3723401
389	1238145117 1206170 672008074 674387170 1778.7930044976 1785.088007764 32768 545427 892517 29167886006 2.5965005390526e+16
388	1239351287 1140634 674387179 676759899 1785.0880088528 1791.3860066752 32768 1290 1290 42270720 54529228800
386	1240491921 1465150 674387179 676759899 1785.0880088528 1791.3860066752 32768 0.004134973639 688.20779122113 41538.31401098 7221784.5356329
389	1241957071 1206170 674387179 676759899 1785.0880088528 1791.3860066752 32768 548466 895667 29270964396 2.6148955006972e+16
388	1243163241 1140640 676759908 679139480 1791.386007764 1797.690007764 32768 1290 1290 42270720 54529228800
386	1244303881 1465164 676759908 679139480 1791.386007764 1797.690007764 32768 0.004133884839 688.20679122113 40720.320117462 6751551.8102629
389	1245769045 1206176 676759908 679139480 1791.386007764 1797.690007764 32768 551730 898812 29374603013 2.6334322131575e+16
386	1246975221 536080 679139494 680006910 1797.6900088528 1799.9990088528 11989 0.004153237609 688.21479013233 15458.797448057 2885655.235277
388	1247511301 417330 679139494 680006910 1797.6900088528 1799.9990088528 11989 1290 1290 15465810 19950894900
389	1247928631 441308 679139494 680006910 1797.6900088528 1799.9990088528 11989 554745 899970 10772993065 9.6810391894692e+15
427	1248369939 936579 671045263 680006583 1776.246008316 1799.998008316 21033 0.004013406127 686.65245416826 309584.30379832 212143708.09516
429	1249306518 706350 671045263 680006583 1776.246008316 1799.998008316 21033 292 292 6141636 1793357712
430	1250012868 768999 671045263 680006583 1776.246008316 1799.998008316 21033 72620 119998 2486237709 2.9481673580028e+14
468	1250781867 196876 405266 679998881 1.280007924 1799.9770092744 4496 0.008189284635 0.008870318923 38.710165064292 0.33366205214358
470	1250978743 142924 405266 679998881 1.280007924 1799.9770092744 4496 47 47 211312 9931664
471	1251121667 146870 405266 679998881 1.280007924 1799.9770092744 4496 0 899 2019155 1209744743
509	1251268537 388507 600529753 680000948 1589.525008668 1799.9830089296 8684 0.014361659326 687.55896632412 1628779.2378086 1119656998.4833
511	1251657044 291798 600529753 680000948 1589.525008668 1799.9830089296 8684 512 512 4446208 2276458496
512	1251948842 308060 600529753 680000948 1589.525008668 1799.9830089296 8684 9013 17991 130795670 2054417060574
651	1252256902 29 680007231 680007231 1800 1800 1 644812.95 644812.95 644812.95 415783740487.7
791	1252256931 35 680007231 680007231 1800 1800 1 644783.56666667 644783.56666667 644783.56666667 415745847843.39
931	1252256966 28 680007231 680007231 1800 1800 1 644793.6 644793.6 644793.6 415758786600.96
1071	1252256994 36 680007231 680007231 1800 1800 1 644943.38333333 644943.38333333 644943.38333333 415951967705.45
1211	1252257030 30 680007231 680007231 1800 1800 1 644847.35 644847.35 644847.35 415828104802.02
1351	1252257060 36 680007231 680007231 1800 1800 1 644953.41666667 644953.41666667 644953.41666667 415964909670.01
1491	1252257096 29 680007231 680007231 1800 1800 1 644991.4 644991.4 644991.4 416013906073.96
1631	1252257125 36 680007231 680007231 1800 1800 1 644835.16666667 644835.16666667 644835.16666667 415812392170.03
1771	1252257161 30 680007231 680007231 1800 1800 1 644830.15 644830.15 644830.15 415805922349.02
1911	1252257191 36 680007231 680007231 1800 1800 1 644987.81666667 644987.81666667 644987.81666667 416009283648.43
2051	1252257227 36 680007231 680007231 1800 1800 1 644878.88333333 644878.88333333 644878.88333333 415868774169.25
2191	1252257263 29 680007231 680007231 1800 1800 1 644694.7 644694.7 644694.7 415631256208.09
2331	1252257292 36 680007231 680007231 1800 1800 1 19465.368888889 19465.368888889 19465.368888889 378900585.98052
2471	1252257328 36 680007231 680007231 1800 1800 1 19462.286666667 19462.286666667 19462.286666667 378780602.29551
2611	1252257364 36 680007231 680007231 1800 1800 1 19463.584444444 19463.584444444 19463.584444444 378831119.42602
2751	1252257400 36 680007231 680007231 1800 1800 1 19466.666666667 19466.666666667 19466.666666667 378951111.11111
2891	1252257436 36 680007231 680007231 1800 1800 1 19462.611111111 19462.611111111 19462.611111111 378793231.26235
3031	1252257472 36 680007231 680007231 1800 1800 1 19462.611111111 19462.611111111 19462.611111111 378793231.26235
3171	1252257508 36 680007231 680007231 1800 1800 1 19461.475555556 19461.475555556 19461.475555556 378749030.79949
3311	1252257544 36 680007231 680007231 1800 1800 1 19463.422222222 19463.422222222 19463.422222222 378824804.60049
3451	1252257580 36 680007231 680007231 1800 1800 1 19464.557777778 19464.557777778 19464.557777778 378869009.48445
3591	1252257616 36 680007231 680007231 1800 1800 1 19465.531111111 19465.531111111 19465.531111111 378906901.43763
3731	1252257652 36 680007231 680007231 1800 1800 1 19463.097777778 19463.097777778 19463.097777778 378812175.10734
3871	1252257688 36 680007231 680007231 1800 1800 1 19462.611111111 19462.611111111 19462.611111111 378793231.26235
4011	1252257724 36 680007231 680007231 1800 1800 1 19461.475555556 19461.475555556 19461.475555556 378749030.79949
4151	1252257760 36 680007231 680007231 1800 1800 1 19461.637777778 19461.637777778 19461.637777778 378755344.99343
4291	1252257796 36 680007231 680007231 1800 1800 1 19462.611111111 19462.611111111 19462.611111111 378793231.26235
4431	1252257832 25 680007231 680007231 1800 1800 1 23.5 23.5 23.5 552.25
4571	1252257857 36 680007231 680007231 1800 1800 1 23.473888888889 23.473888888889 23.473888888889 551.0234595679
4711	1252257893 25 680007231 680007231 1800 1800 1 23.5 23.5 23.5 552.25
4851	1252257918 36 680007231 680007231 1800 1800 1 23.473888888889 23.473888888889 23.473888888889 551.0234595679
4991	1252257954 36 680007231 680007231 1800 1800 1 23.447777777778 23.447777777778 23.447777777778 549.79828271605
5131	1252257990 36 680007231 680007231 1800 1800 1 5118.0088888889 5118.0088888889 5118.0088888889 26194014.986746
5271	1252258026 36 680007231 680007231 1800 1800 1 5115.4488888889 5115.4488888889 5115.4488888889 26167817.334835
5411	1252258062 36 680007231 680007231 1800 1800 1 5117.7244444444 5117.7244444444 5117.7244444444 26191103.489264
5551	1252258098 36 680007231 680007231 1800 1800 1 5116.3022222222 5116.3022222222 5116.3022222222 26176548.429116
5691	1252258134 25 680007231 680007231 1800 1800 1 5120 5120 5120 26214400

