version 3
run MediumLoad-0-20260209-19:27:05-137
attr configname MediumLoad
attr datetime 20260209-19:27:05
attr datetimef 20260209-192705
attr experiment MediumLoad
attr inifile omnetpp.ini
attr iterationvars ""
attr iterationvarsd ""
attr iterationvarsf ""
attr measurement ""
attr network NetworkSlicing
attr processid 137
attr repetition 0
attr replication #0
attr resultdir results
attr runnumber 0
attr seedset 0
config description "Charge moderee - URLLC pres du seuil SLA 20ms"
config *.numEmbbUes 6
config *.numUrllcUes 10
config *.numMmtcUes 3
config *.numBestEffortUes 3
config sim-time-limit 1800s
config *.ueEmbb[*].app[0].packetSize 1290B
config *.ueEmbb[*].app[0].samplingTime 0.0038s
config *.ueUrllc[*].app[0].packetSize 292B
config *.ueUrllc[*].app[0].samplingTime 0.030s
config *.ueMmtc[*].app[0].packetSize 47B
config *.ueMmtc[*].app[0].samplingTime 5s
config network NetworkSlicing
config sim-time-limit 300s
config seed-set 0
config *.configurator.config "xml(\"<config><interface among='gnb iUpf upf router' address='10.x.x.x' netmask='255.255.255.0'/><interface hosts='*' address='192.168.x.x' netmask='255.255.255.0'/></config>\")"
config output-vector-file results/MediumLoad-0.vec
config output-scalar-file results/MediumLoad-0.sca
config **.mac.receivedPacketFromLowerLayer.result-recording-modes -
config **.mac.receivedPacketFromUpperLayer.result-recording-modes -
config **.mac.sentPacketToLowerLayer.result-recording-modes -
config **.mac.sentPacketToUpperLayer.result-recording-modes -
config **.app[*].**.vector-recording true
config **.app[*].**.scalar-recording true
config **.vector-recording false
config **.scalar-recording true
config **.cbrFrameDelay.vector-recording true
config **.cbrJitter.vector-recording true
config **.cbrFrameLoss.vector-recording true
config **.cbrRcvdPkt.vector-recording true
config **.cbrSentPkt.vector-recording true
config **.cbrGeneratedThroughput.vector-recording true
config **.cbrFrameDelay.result-recording-modes +vector
config **.cbrJitter.result-recording-modes +vector
config **.numBands 50
config **.ueTxPower 26dBm
config **.eNodeBTxPower 40dBm
config **.targetBler 0.01
config **.blerShift 5
config *.gnb.cellularNic.phy.carrierFrequency 3.5GHz
config *.gnb.cellularNic.mac.schedulingDisciplineDl "\"MAXCI\""
config *.gnb.cellularNic.mac.schedulingDisciplineUl "\"MAXCI\""
config **.mobility.constraintAreaMaxX 1000m
config **.mobility.constraintAreaMaxY 1000m
config **.mobility.constraintAreaMinX 0m
config **.mobility.constraintAreaMinY 0m
config **.mobility.constraintAreaMinZ 0m
config **.mobility.constraintAreaMaxZ 0m
config **.mobility.initFromDisplayString false
config *.gnb.mobility.initialX 500m
config *.gnb.mobility.initialY 500m
config *.ueEmbb[*].mobility.initialX "uniform(400m, 600m)"
config *.ueEmbb[*].mobility.initialY "uniform(400m, 600m)"
config *.ueUrllc[*].mobility.initialX "uniform(450m, 550m)"
config *.ueUrllc[*].mobility.initialY "uniform(450m, 550m)"
config *.ueMmtc[*].mobility.initialX "uniform(350m, 650m)"
config *.ueMmtc[*].mobility.initialY "uniform(350m, 650m)"
config *.ueBestEffort[*].mobility.initialX "uniform(400m, 600m)"
config *.ueBestEffort[*].mobility.initialY "uniform(400m, 600m)"
config *.gnb.cellularNic.mac.qosHandler.slicing true
config *.ueEmbb[*].macCellId 0
config *.ueEmbb[*].masterId 0
config *.ueEmbb[*].nrMacCellId 1
config *.ueEmbb[*].nrMasterId 1
config *.ueUrllc[*].macCellId 0
config *.ueUrllc[*].masterId 0
config *.ueUrllc[*].nrMacCellId 1
config *.ueUrllc[*].nrMasterId 1
config *.ueMmtc[*].macCellId 0
config *.ueMmtc[*].masterId 0
config *.ueMmtc[*].nrMacCellId 1
config *.ueMmtc[*].nrMasterId 1
config *.ueBestEffort[*].macCellId 0
config *.ueBestEffort[*].masterId 0
config *.ueBestEffort[*].nrMacCellId 1
config *.ueBestEffort[*].nrMasterId 1
config *.gnb.cellularNic.mac.sliceConfig "xmldoc(\"sliceConfig.xml\")"
config *.ueEmbb[*].numApps 1
config *.ueEmbb[*].app[0].typename simu5g.apps.cbr.CbrSender
config *.ueEmbb[*].app[0].destAddress "\"serverEmbb\""
config *.ueEmbb[*].app[0].destPort 49005
config *.ueEmbb[*].app[0].packetSize 1400B
config *.ueEmbb[*].app[0].samplingTime 0.001s
config *.ueEmbb[*].app[0].startTime "uniform(0s, 1s)"
config *.ueEmbb[*].app[0].finishTime 0s
config *.serverEmbb.numApps 1
config *.serverEmbb.app[0].typename simu5g.apps.cbr.CbrReceiver
config *.serverEmbb.app[0].localPort 49005
config *.ueUrllc[*].numApps 1
config *.ueUrllc[*].app[0].typename simu5g.apps.cbr.CbrSender
config *.ueUrllc[*].app[0].destAddress "\"serverUrllc\""
config *.ueUrllc[*].app[0].destPort 49003
config *.ueUrllc[*].app[0].packetSize 200B
config *.ueUrllc[*].app[0].samplingTime 0.005s
config *.ueUrllc[*].app[0].startTime "uniform(0s, 0.5s)"
config *.ueUrllc[*].app[0].finishTime 0s
config *.serverUrllc.numApps 1
config *.serverUrllc.app[0].typename simu5g.apps.cbr.CbrReceiver
config *.serverUrllc.app[0].localPort 49003
config *.ueMmtc[*].numApps 1
config *.ueMmtc[*].app[0].typename simu5g.apps.cbr.CbrSender
config *.ueMmtc[*].app[0].destAddress "\"serverMmtc\""
config *.ueMmtc[*].app[0].destPort 8443
config *.ueMmtc[*].app[0].packetSize 100B
config *.ueMmtc[*].app[0].samplingTime 1s
config *.ueMmtc[*].app[0].startTime "uniform(0s, 5s)"
config *.ueMmtc[*].app[0].finishTime 0s
config *.serverMmtc.numApps 1
config *.serverMmtc.app[0].typename simu5g.apps.cbr.CbrReceiver
config *.serverMmtc.app[0].localPort 8443
config *.ueBestEffort[*].numApps 1
config *.ueBestEffort[*].app[0].typename simu5g.apps.cbr.CbrSender
config *.ueBestEffort[*].app[0].destAddress "\"serverBestEffort\""
config *.ueBestEffort[*].app[0].destPort 5000
config *.ueBestEffort[*].app[0].packetSize 512B
config *.ueBestEffort[*].app[0].samplingTime 0.1s
config *.ueBestEffort[*].app[0].startTime "uniform(0s, 2s)"
config *.ueBestEffort[*].app[0].finishTime 0s
config *.serverBestEffort.numApps 1
config *.serverBestEffort.app[0].typename simu5g.apps.cbr.CbrReceiver
config *.serverBestEffort.app[0].localPort 5000

par NetworkSlicing.gnb.ppp$o.channel typename "\"inet.node.ethernet.Eth10G\""
par NetworkSlicing.gnb.ppp$o.channel disabled false
attr mutable ""
par NetworkSlicing.gnb.ppp$o.channel delay 5e-08s
attr mutable ""
attr unit s
par NetworkSlicing.gnb.ppp$o.channel datarate 1e+10bps
attr mutable ""
attr unit bps
par NetworkSlicing.gnb.ppp$o.channel ber 0
attr mutable ""
par NetworkSlicing.gnb.ppp$o.channel per 0
attr mutable ""
par NetworkSlicing.gnb.ppp$o.channel length 10m
attr unit m
par NetworkSlicing.iUpf.pppg$o[0].channel typename "\"inet.node.ethernet.Eth10G\""
par NetworkSlicing.iUpf.pppg$o[0].channel disabled false
attr mutable ""
par NetworkSlicing.iUpf.pppg$o[0].channel delay 5e-08s
attr mutable ""
attr unit s
par NetworkSlicing.iUpf.pppg$o[0].channel datarate 1e+10bps
attr mutable ""
attr unit bps
par NetworkSlicing.iUpf.pppg$o[0].channel ber 0
attr mutable ""
par NetworkSlicing.iUpf.pppg$o[0].channel per 0
attr mutable ""
par NetworkSlicing.iUpf.pppg$o[0].channel length 10m
attr unit m
par NetworkSlicing.iUpf.pppg$o[1].channel typename "\"inet.node.ethernet.Eth10G\""
par NetworkSlicing.iUpf.pppg$o[1].channel disabled false
attr mutable ""
par NetworkSlicing.iUpf.pppg$o[1].channel delay 5e-08s
attr mutable ""
attr unit s
par NetworkSlicing.iUpf.pppg$o[1].channel datarate 1e+10bps
attr mutable ""
attr unit bps
par NetworkSlicing.iUpf.pppg$o[1].channel ber 0
attr mutable ""
par NetworkSlicing.iUpf.pppg$o[1].channel per 0
attr mutable ""
par NetworkSlicing.iUpf.pppg$o[1].channel length 10m
attr unit m
par NetworkSlicing.upf.pppg$o[0].channel typename "\"inet.node.ethernet.Eth10G\""
par NetworkSlicing.upf.pppg$o[0].channel disabled false
attr mutable ""
par NetworkSlicing.upf.pppg$o[0].channel delay 5e-08s
attr mutable ""
attr unit s
par NetworkSlicing.upf.pppg$o[0].channel datarate 1e+10bps
attr mutable ""
attr unit bps
par NetworkSlicing.upf.pppg$o[0].channel ber 0
attr mutable ""
par NetworkSlicing.upf.pppg$o[0].channel per 0
attr mutable ""
par NetworkSlicing.upf.pppg$o[0].channel length 10m
attr unit m
par NetworkSlicing.upf.filterGate$o.channel typename "\"inet.node.ethernet.Eth10G\""
par NetworkSlicing.upf.filterGate$o.channel disabled false
attr mutable ""
par NetworkSlicing.upf.filterGate$o.channel delay 5e-08s
attr mutable ""
attr unit s
par NetworkSlicing.upf.filterGate$o.channel datarate 1e+10bps
attr mutable ""
attr unit bps
par NetworkSlicing.upf.filterGate$o.channel ber 0
attr mutable ""
par NetworkSlicing.upf.filterGate$o.channel per 0
attr mutable ""
par NetworkSlicing.upf.filterGate$o.channel length 10m
attr unit m
par NetworkSlicing.router.pppg$o[0].channel typename "\"inet.node.ethernet.Eth10G\""
par NetworkSlicing.router.pppg$o[0].channel disabled false
attr mutable ""
par NetworkSlicing.router.pppg$o[0].channel delay 5e-08s
attr mutable ""
attr unit s
par NetworkSlicing.router.pppg$o[0].channel datarate 1e+10bps
attr mutable ""
attr unit bps
par NetworkSlicing.router.pppg$o[0].channel ber 0
attr mutable ""
par NetworkSlicing.router.pppg$o[0].channel per 0
attr mutable ""
par NetworkSlicing.router.pppg$o[0].channel length 10m
attr unit m
par NetworkSlicing.router.pppg$o[1].channel typename "\"inet.node.ethernet.Eth10G\""
par NetworkSlicing.router.pppg$o[1].channel disabled false
attr mutable ""
par NetworkSlicing.router.pppg$o[1].channel delay 5e-08s
attr mutable ""
attr unit s
par NetworkSlicing.router.pppg$o[1].channel datarate 1e+10bps
attr mutable ""
attr unit bps
par NetworkSlicing.router.pppg$o[1].channel ber 0
attr mutable ""
par NetworkSlicing.router.pppg$o[1].channel per 0
attr mutable ""
par NetworkSlicing.router.pppg$o[1].channel length 10m
attr unit m
par NetworkSlicing.serverEmbb.pppg$o[0].channel typename "\"inet.node.ethernet.Eth10G\""
par NetworkSlicing.serverEmbb.pppg$o[0].channel disabled false
attr mutable ""
par NetworkSlicing.serverEmbb.pppg$o[0].channel delay 5e-08s
attr mutable ""
attr unit s
par NetworkSlicing.serverEmbb.pppg$o[0].channel datarate 1e+10bps
attr mutable ""
attr unit bps
par NetworkSlicing.serverEmbb.pppg$o[0].channel ber 0
attr mutable ""
par NetworkSlicing.serverEmbb.pppg$o[0].channel per 0
attr mutable ""
par NetworkSlicing.serverEmbb.pppg$o[0].channel length 10m
attr unit m
par NetworkSlicing.router.pppg$o[2].channel typename "\"inet.node.ethernet.Eth10G\""
par NetworkSlicing.router.pppg$o[2].channel disabled false
attr mutable ""
par NetworkSlicing.router.pppg$o[2].channel delay 5e-08s
attr mutable ""
attr unit s
par NetworkSlicing.router.pppg$o[2].channel datarate 1e+10bps
attr mutable ""
attr unit bps
par NetworkSlicing.router.pppg$o[2].channel ber 0
attr mutable ""
par NetworkSlicing.router.pppg$o[2].channel per 0
attr mutable ""
par NetworkSlicing.router.pppg$o[2].channel length 10m
attr unit m
par NetworkSlicing.serverUrllc.pppg$o[0].channel typename "\"inet.node.ethernet.Eth10G\""
par NetworkSlicing.serverUrllc.pppg$o[0].channel disabled false
attr mutable ""
par NetworkSlicing.serverUrllc.pppg$o[0].channel delay 5e-08s
attr mutable ""
attr unit s
par NetworkSlicing.serverUrllc.pppg$o[0].channel datarate 1e+10bps
attr mutable ""
attr unit bps
par NetworkSlicing.serverUrllc.pppg$o[0].channel ber 0
attr mutable ""
par NetworkSlicing.serverUrllc.pppg$o[0].channel per 0
attr mutable ""
par NetworkSlicing.serverUrllc.pppg$o[0].channel length 10m
attr unit m
par NetworkSlicing.router.pppg$o[3].channel typename "\"inet.node.ethernet.Eth10G\""
par NetworkSlicing.router.pppg$o[3].channel disabled false
attr mutable ""
par NetworkSlicing.router.pppg$o[3].channel delay 5e-08s
attr mutable ""
attr unit s
par NetworkSlicing.router.pppg$o[3].channel datarate 1e+10bps
attr mutable ""
attr unit bps
par NetworkSlicing.router.pppg$o[3].channel ber 0
attr mutable ""
par NetworkSlicing.router.pppg$o[3].channel per 0
attr mutable ""
par NetworkSlicing.router.pppg$o[3].channel length 10m
attr unit m
par NetworkSlicing.serverMmtc.pppg$o[0].channel typename "\"inet.node.ethernet.Eth10G\""
par NetworkSlicing.serverMmtc.pppg$o[0].channel disabled false
attr mutable ""
par NetworkSlicing.serverMmtc.pppg$o[0].channel delay 5e-08s
attr mutable ""
attr unit s
par NetworkSlicing.serverMmtc.pppg$o[0].channel datarate 1e+10bps
attr mutable ""
attr unit bps
par NetworkSlicing.serverMmtc.pppg$o[0].channel ber 0
attr mutable ""
par NetworkSlicing.serverMmtc.pppg$o[0].channel per 0
attr mutable ""
par NetworkSlicing.serverMmtc.pppg$o[0].channel length 10m
attr unit m
par NetworkSlicing.router.pppg$o[4].channel typename "\"inet.node.ethernet.Eth10G\""
par NetworkSlicing.router.pppg$o[4].channel disabled false
attr mutable ""
par NetworkSlicing.router.pppg$o[4].channel delay 5e-08s
attr mutable ""
attr unit s
par NetworkSlicing.router.pppg$o[4].channel datarate 1e+10bps
attr mutable ""
attr unit bps
par NetworkSlicing.router.pppg$o[4].channel ber 0
attr mutable ""
par NetworkSlicing.router.pppg$o[4].channel per 0
attr mutable ""
par NetworkSlicing.router.pppg$o[4].channel length 10m
attr unit m
par NetworkSlicing.serverBestEffort.pppg$o[0].channel typename "\"inet.node.ethernet.Eth10G\""
par NetworkSlicing.serverBestEffort.pppg$o[0].channel disabled false
attr mutable ""
par NetworkSlicing.serverBestEffort.pppg$o[0].channel delay 5e-08s
attr mutable ""
attr unit s
par NetworkSlicing.serverBestEffort.pppg$o[0].channel datarate 1e+10bps
attr mutable ""
attr unit bps
par NetworkSlicing.serverBestEffort.pppg$o[0].channel ber 0
attr mutable ""
par NetworkSlicing.serverBestEffort.pppg$o[0].channel per 0
attr mutable ""
par NetworkSlicing.serverBestEffort.pppg$o[0].channel length 10m
attr unit m
par NetworkSlicing.channelControl typename "\"simu5g.world.radio.LteChannelControl\""
par NetworkSlicing.channelControl pMax 20mW
attr unit mW
par NetworkSlicing.channelControl sat -110dBm
attr unit dBm
par NetworkSlicing.channelControl alpha 2
par NetworkSlicing.channelControl carrierFrequency 2.4e+09Hz
attr unit Hz
par NetworkSlicing.channelControl numChannels 1
par NetworkSlicing.configurator typename "\"inet.networklayer.configurator.ipv4.Ipv4NetworkConfigurator\""
par NetworkSlicing.configurator minLinkWeight 0.001
par NetworkSlicing.configurator configureIsolatedNetworksSeparatly false
par NetworkSlicing.configurator config "<config>...</config> at content:1"
par NetworkSlicing.configurator assignAddresses true
par NetworkSlicing.configurator assignUniqueAddresses true
par NetworkSlicing.configurator assignDisjunctSubnetAddresses true
par NetworkSlicing.configurator addStaticRoutes true
par NetworkSlicing.configurator addDefaultRoutes true
par NetworkSlicing.configurator addSubnetRoutes true
par NetworkSlicing.configurator addDirectRoutes true
par NetworkSlicing.configurator optimizeRoutes true
par NetworkSlicing.configurator dumpTopology false
par NetworkSlicing.configurator dumpLinks false
par NetworkSlicing.configurator dumpAddresses false
par NetworkSlicing.configurator dumpRoutes false
par NetworkSlicing.configurator dumpConfig "\"\""
par NetworkSlicing.binder typename "\"simu5g.common.binder.Binder\""
par NetworkSlicing.binder blerShift 5
par NetworkSlicing.binder maxDataRatePerRb 1.16Mbps
attr unit Mbps
par NetworkSlicing.binder printTrafficGeneratorConfig false
par NetworkSlicing.carrierAggregation.componentCarrier[0] typename "\"simu5g.common.carrierAggregation.ComponentCarrier\""
par NetworkSlicing.carrierAggregation.componentCarrier[0] binderModule "\"binder\""
par NetworkSlicing.carrierAggregation.componentCarrier[0] carrierFrequency 2GHz
attr unit GHz
par NetworkSlicing.carrierAggregation.componentCarrier[0] numBands 50
par NetworkSlicing.carrierAggregation.componentCarrier[0] numerologyIndex 0
par NetworkSlicing.carrierAggregation.componentCarrier[0] useTdd false
par NetworkSlicing.carrierAggregation.componentCarrier[0] tddNumSymbolsDl 7
par NetworkSlicing.carrierAggregation.componentCarrier[0] tddNumSymbolsUl 7
par NetworkSlicing.carrierAggregation typename "\"simu5g.common.carrierAggregation.CarrierAggregation\""
par NetworkSlicing.carrierAggregation numComponentCarriers 1
par NetworkSlicing.gnb.interfaceTable typename "\"inet.networklayer.common.InterfaceTable\""
par NetworkSlicing.gnb.interfaceTable displayAddresses false
par NetworkSlicing.gnb.mobility typename "\"inet.mobility.static.StationaryMobility\""
par NetworkSlicing.gnb.mobility subjectModule "\"^\""
par NetworkSlicing.gnb.mobility coordinateSystemModule "\"\""
par NetworkSlicing.gnb.mobility displayStringTextFormat "\"p: %p\\nv: %v\""
attr mutable ""
par NetworkSlicing.gnb.mobility updateDisplayString true
par NetworkSlicing.gnb.mobility constraintAreaMinX 0m
attr unit m
par NetworkSlicing.gnb.mobility constraintAreaMinY 0m
attr unit m
par NetworkSlicing.gnb.mobility constraintAreaMinZ 0m
attr unit m
par NetworkSlicing.gnb.mobility constraintAreaMaxX 1000m
attr unit m
par NetworkSlicing.gnb.mobility constraintAreaMaxY 1000m
attr unit m
par NetworkSlicing.gnb.mobility constraintAreaMaxZ 0m
attr unit m
par NetworkSlicing.gnb.mobility initialX 500m
attr unit m
par NetworkSlicing.gnb.mobility initialY 500m
attr unit m
par NetworkSlicing.gnb.mobility initialZ 0m
attr unit m
par NetworkSlicing.gnb.mobility initialLatitude "nan deg"
attr unit deg
par NetworkSlicing.gnb.mobility initialLongitude "nan deg"
attr unit deg
par NetworkSlicing.gnb.mobility initialAltitude 0m
attr unit m
par NetworkSlicing.gnb.mobility initialHeading 0deg
attr unit deg
par NetworkSlicing.gnb.mobility initialElevation 0deg
attr unit deg
par NetworkSlicing.gnb.mobility initialBank 0deg
attr unit deg
par NetworkSlicing.gnb.mobility initFromDisplayString false
par NetworkSlicing.gnb.mobility updateFromDisplayString true
par NetworkSlicing.gnb.cellInfo typename "\"simu5g.common.cellInfo.CellInfo\""
par NetworkSlicing.gnb.cellInfo constraintAreaMinX "-inf m"
attr unit m
par NetworkSlicing.gnb.cellInfo constraintAreaMinY "-inf m"
attr unit m
par NetworkSlicing.gnb.cellInfo constraintAreaMaxX "inf m"
attr unit m
par NetworkSlicing.gnb.cellInfo constraintAreaMaxY "inf m"
attr unit m
par NetworkSlicing.gnb.cellInfo broadcastMessageInterval 1s
attr unit s
par NetworkSlicing.gnb.cellInfo microCell false
par NetworkSlicing.gnb.cellInfo numRus 0
par NetworkSlicing.gnb.cellInfo ruRange 0
par NetworkSlicing.gnb.cellInfo ruStartingAngle 0deg
attr unit deg
par NetworkSlicing.gnb.cellInfo ruTxPower "\"0;\""
par NetworkSlicing.gnb.cellInfo antennaCws "\"1;\""
par NetworkSlicing.gnb.cellInfo rbyDl 12
par NetworkSlicing.gnb.cellInfo rbyUl 12
par NetworkSlicing.gnb.cellInfo rbxDl 7
par NetworkSlicing.gnb.cellInfo rbxUl 7
par NetworkSlicing.gnb.cellInfo rbPilotDl 3
par NetworkSlicing.gnb.cellInfo rbPilotUl 0
par NetworkSlicing.gnb.cellInfo signalDl 1
par NetworkSlicing.gnb.cellInfo signalUl 1
par NetworkSlicing.gnb.cellInfo numPreferredBands 1
par NetworkSlicing.gnb.cellInfo binderModule "\"binder\""
par NetworkSlicing.gnb.cellularNic.ip2nic.upperLayerOut.channel typename "\"ned.DelayChannel\""
par NetworkSlicing.gnb.cellularNic.ip2nic.upperLayerOut.channel disabled false
attr mutable ""
par NetworkSlicing.gnb.cellularNic.ip2nic.upperLayerOut.channel delay 0s
attr mutable ""
attr unit s
par NetworkSlicing.gnb.cellularNic.upperLayerIn.channel typename "\"ned.DelayChannel\""
par NetworkSlicing.gnb.cellularNic.upperLayerIn.channel disabled false
attr mutable ""
par NetworkSlicing.gnb.cellularNic.upperLayerIn.channel delay 0s
attr mutable ""
attr unit s
par NetworkSlicing.gnb.cellularNic.ip2nic typename "\"simu5g.stack.ip2nic.Ip2Nic\""
par NetworkSlicing.gnb.cellularNic.ip2nic nodeType "\"GNODEB\""
par NetworkSlicing.gnb.cellularNic.ip2nic interfaceTableModule "\"NetworkSlicing.gnb.interfaceTable\""
par NetworkSlicing.gnb.cellularNic.ip2nic interfaceName "\"cellular\""
par NetworkSlicing.gnb.cellularNic.ip2nic routingTableModule "\"NetworkSlicing.gnb.cellularNic.^.ipv4.routingTable\""
par NetworkSlicing.gnb.cellularNic.ip2nic binderModule "\"binder\""
par NetworkSlicing.gnb.cellularNic.ip2nic handoverManagerModule "\"^.handoverManager\""
par NetworkSlicing.gnb.cellularNic.pdcp.rx-2064-1 typename "\"simu5g.stack.pdcp.NrRxPdcpEntity\""
par NetworkSlicing.gnb.cellularNic.pdcp.rx-2064-1 outOfOrderDelivery false
par NetworkSlicing.gnb.cellularNic.pdcp.rx-2064-1 timeout 0.1s
attr unit s
par NetworkSlicing.gnb.cellularNic.pdcp.rx-2064-1 rxWindowSize 4096
par NetworkSlicing.gnb.cellularNic.pdcp.rx-2055-1 typename "\"simu5g.stack.pdcp.NrRxPdcpEntity\""
par NetworkSlicing.gnb.cellularNic.pdcp.rx-2055-1 outOfOrderDelivery false
par NetworkSlicing.gnb.cellularNic.pdcp.rx-2055-1 timeout 0.1s
attr unit s
par NetworkSlicing.gnb.cellularNic.pdcp.rx-2055-1 rxWindowSize 4096
par NetworkSlicing.gnb.cellularNic.pdcp.rx-2058-1 typename "\"simu5g.stack.pdcp.NrRxPdcpEntity\""
par NetworkSlicing.gnb.cellularNic.pdcp.rx-2058-1 outOfOrderDelivery false
par NetworkSlicing.gnb.cellularNic.pdcp.rx-2058-1 timeout 0.1s
attr unit s
par NetworkSlicing.gnb.cellularNic.pdcp.rx-2058-1 rxWindowSize 4096
par NetworkSlicing.gnb.cellularNic.pdcp.rx-2054-1 typename "\"simu5g.stack.pdcp.NrRxPdcpEntity\""
par NetworkSlicing.gnb.cellularNic.pdcp.rx-2054-1 outOfOrderDelivery false
par NetworkSlicing.gnb.cellularNic.pdcp.rx-2054-1 timeout 0.1s
attr unit s
par NetworkSlicing.gnb.cellularNic.pdcp.rx-2054-1 rxWindowSize 4096
par NetworkSlicing.gnb.cellularNic.pdcp.rx-2061-1 typename "\"simu5g.stack.pdcp.NrRxPdcpEntity\""
par NetworkSlicing.gnb.cellularNic.pdcp.rx-2061-1 outOfOrderDelivery false
par NetworkSlicing.gnb.cellularNic.pdcp.rx-2061-1 timeout 0.1s
attr unit s
par NetworkSlicing.gnb.cellularNic.pdcp.rx-2061-1 rxWindowSize 4096
par NetworkSlicing.gnb.cellularNic.pdcp.rx-2052-1 typename "\"simu5g.stack.pdcp.NrRxPdcpEntity\""
par NetworkSlicing.gnb.cellularNic.pdcp.rx-2052-1 outOfOrderDelivery false
par NetworkSlicing.gnb.cellularNic.pdcp.rx-2052-1 timeout 0.1s
attr unit s
par NetworkSlicing.gnb.cellularNic.pdcp.rx-2052-1 rxWindowSize 4096
par NetworkSlicing.gnb.cellularNic.pdcp.rx-2059-1 typename "\"simu5g.stack.pdcp.NrRxPdcpEntity\""
par NetworkSlicing.gnb.cellularNic.pdcp.rx-2059-1 outOfOrderDelivery false
par NetworkSlicing.gnb.cellularNic.pdcp.rx-2059-1 timeout 0.1s
attr unit s
par NetworkSlicing.gnb.cellularNic.pdcp.rx-2059-1 rxWindowSize 4096
par NetworkSlicing.gnb.cellularNic.pdcp.rx-2056-1 typename "\"simu5g.stack.pdcp.NrRxPdcpEntity\""
par NetworkSlicing.gnb.cellularNic.pdcp.rx-2056-1 outOfOrderDelivery false
par NetworkSlicing.gnb.cellularNic.pdcp.rx-2056-1 timeout 0.1s
attr unit s
par NetworkSlicing.gnb.cellularNic.pdcp.rx-2056-1 rxWindowSize 4096
par NetworkSlicing.gnb.cellularNic.pdcp.rx-2057-1 typename "\"simu5g.stack.pdcp.NrRxPdcpEntity\""
par NetworkSlicing.gnb.cellularNic.pdcp.rx-2057-1 outOfOrderDelivery false
par NetworkSlicing.gnb.cellularNic.pdcp.rx-2057-1 timeout 0.1s
attr unit s
par NetworkSlicing.gnb.cellularNic.pdcp.rx-2057-1 rxWindowSize 4096
par NetworkSlicing.gnb.cellularNic.pdcp.rx-2063-1 typename "\"simu5g.stack.pdcp.NrRxPdcpEntity\""
par NetworkSlicing.gnb.cellularNic.pdcp.rx-2063-1 outOfOrderDelivery false
par NetworkSlicing.gnb.cellularNic.pdcp.rx-2063-1 timeout 0.1s
attr unit s
par NetworkSlicing.gnb.cellularNic.pdcp.rx-2063-1 rxWindowSize 4096
par NetworkSlicing.gnb.cellularNic.pdcp.rx-2062-1 typename "\"simu5g.stack.pdcp.NrRxPdcpEntity\""
par NetworkSlicing.gnb.cellularNic.pdcp.rx-2062-1 outOfOrderDelivery false
par NetworkSlicing.gnb.cellularNic.pdcp.rx-2062-1 timeout 0.1s
attr unit s
par NetworkSlicing.gnb.cellularNic.pdcp.rx-2062-1 rxWindowSize 4096
par NetworkSlicing.gnb.cellularNic.pdcp.rx-2053-1 typename "\"simu5g.stack.pdcp.NrRxPdcpEntity\""
par NetworkSlicing.gnb.cellularNic.pdcp.rx-2053-1 outOfOrderDelivery false
par NetworkSlicing.gnb.cellularNic.pdcp.rx-2053-1 timeout 0.1s
attr unit s
par NetworkSlicing.gnb.cellularNic.pdcp.rx-2053-1 rxWindowSize 4096
par NetworkSlicing.gnb.cellularNic.pdcp.rx-2060-1 typename "\"simu5g.stack.pdcp.NrRxPdcpEntity\""
par NetworkSlicing.gnb.cellularNic.pdcp.rx-2060-1 outOfOrderDelivery false
par NetworkSlicing.gnb.cellularNic.pdcp.rx-2060-1 timeout 0.1s
attr unit s
par NetworkSlicing.gnb.cellularNic.pdcp.rx-2060-1 rxWindowSize 4096
par NetworkSlicing.gnb.cellularNic.pdcp.rx-2070-1 typename "\"simu5g.stack.pdcp.NrRxPdcpEntity\""
par NetworkSlicing.gnb.cellularNic.pdcp.rx-2070-1 outOfOrderDelivery false
par NetworkSlicing.gnb.cellularNic.pdcp.rx-2070-1 timeout 0.1s
attr unit s
par NetworkSlicing.gnb.cellularNic.pdcp.rx-2070-1 rxWindowSize 4096
par NetworkSlicing.gnb.cellularNic.pdcp.rx-2049-1 typename "\"simu5g.stack.pdcp.NrRxPdcpEntity\""
par NetworkSlicing.gnb.cellularNic.pdcp.rx-2049-1 outOfOrderDelivery false
par NetworkSlicing.gnb.cellularNic.pdcp.rx-2049-1 timeout 0.1s
attr unit s
par NetworkSlicing.gnb.cellularNic.pdcp.rx-2049-1 rxWindowSize 4096
par NetworkSlicing.gnb.cellularNic.pdcp.rx-2051-1 typename "\"simu5g.stack.pdcp.NrRxPdcpEntity\""
par NetworkSlicing.gnb.cellularNic.pdcp.rx-2051-1 outOfOrderDelivery false
par NetworkSlicing.gnb.cellularNic.pdcp.rx-2051-1 timeout 0.1s
attr unit s
par NetworkSlicing.gnb.cellularNic.pdcp.rx-2051-1 rxWindowSize 4096
par NetworkSlicing.gnb.cellularNic.pdcp.rx-2050-1 typename "\"simu5g.stack.pdcp.NrRxPdcpEntity\""
par NetworkSlicing.gnb.cellularNic.pdcp.rx-2050-1 outOfOrderDelivery false
par NetworkSlicing.gnb.cellularNic.pdcp.rx-2050-1 timeout 0.1s
attr unit s
par NetworkSlicing.gnb.cellularNic.pdcp.rx-2050-1 rxWindowSize 4096
par NetworkSlicing.gnb.cellularNic.pdcp.rx-2069-1 typename "\"simu5g.stack.pdcp.NrRxPdcpEntity\""
par NetworkSlicing.gnb.cellularNic.pdcp.rx-2069-1 outOfOrderDelivery false
par NetworkSlicing.gnb.cellularNic.pdcp.rx-2069-1 timeout 0.1s
attr unit s
par NetworkSlicing.gnb.cellularNic.pdcp.rx-2069-1 rxWindowSize 4096
par NetworkSlicing.gnb.cellularNic.pdcp.rx-2068-1 typename "\"simu5g.stack.pdcp.NrRxPdcpEntity\""
par NetworkSlicing.gnb.cellularNic.pdcp.rx-2068-1 outOfOrderDelivery false
par NetworkSlicing.gnb.cellularNic.pdcp.rx-2068-1 timeout 0.1s
attr unit s
par NetworkSlicing.gnb.cellularNic.pdcp.rx-2068-1 rxWindowSize 4096
par NetworkSlicing.gnb.cellularNic.pdcp.rx-2066-1 typename "\"simu5g.stack.pdcp.NrRxPdcpEntity\""
par NetworkSlicing.gnb.cellularNic.pdcp.rx-2066-1 outOfOrderDelivery false
par NetworkSlicing.gnb.cellularNic.pdcp.rx-2066-1 timeout 0.1s
attr unit s
par NetworkSlicing.gnb.cellularNic.pdcp.rx-2066-1 rxWindowSize 4096
par NetworkSlicing.gnb.cellularNic.pdcp.rx-2065-1 typename "\"simu5g.stack.pdcp.NrRxPdcpEntity\""
par NetworkSlicing.gnb.cellularNic.pdcp.rx-2065-1 outOfOrderDelivery false
par NetworkSlicing.gnb.cellularNic.pdcp.rx-2065-1 timeout 0.1s
attr unit s
par NetworkSlicing.gnb.cellularNic.pdcp.rx-2065-1 rxWindowSize 4096
par NetworkSlicing.gnb.cellularNic.pdcp.rx-2067-1 typename "\"simu5g.stack.pdcp.NrRxPdcpEntity\""
par NetworkSlicing.gnb.cellularNic.pdcp.rx-2067-1 outOfOrderDelivery false
par NetworkSlicing.gnb.cellularNic.pdcp.rx-2067-1 timeout 0.1s
attr unit s
par NetworkSlicing.gnb.cellularNic.pdcp.rx-2067-1 rxWindowSize 4096
par NetworkSlicing.gnb.cellularNic.pdcp typename "\"simu5g.stack.pdcp.NrPdcpEnb\""
par NetworkSlicing.gnb.cellularNic.pdcp binderModule "\"binder\""
par NetworkSlicing.gnb.cellularNic.pdcp packetFlowObserverModule "\"^.packetFlowObserver\""
par NetworkSlicing.gnb.cellularNic.pdcp nrPacketFlowObserverModule "\"^.nrPacketFlowObserver\""
par NetworkSlicing.gnb.cellularNic.pdcp headerCompressedSize -1B
attr unit B
par NetworkSlicing.gnb.cellularNic.pdcp conversationalRlc "\"UM\""
attr enum TM,UM,AM,UNKNOWN_RLC_TYPE
par NetworkSlicing.gnb.cellularNic.pdcp streamingRlc "\"UM\""
attr enum TM,UM,AM,UNKNOWN_RLC_TYPE
par NetworkSlicing.gnb.cellularNic.pdcp interactiveRlc "\"UM\""
attr enum TM,UM,AM,UNKNOWN_RLC_TYPE
par NetworkSlicing.gnb.cellularNic.pdcp backgroundRlc "\"UM\""
attr enum TM,UM,AM,UNKNOWN_RLC_TYPE
par NetworkSlicing.gnb.cellularNic.pdcp rxEntityModuleType "\"simu5g.stack.pdcp.NrRxPdcpEntity\""
par NetworkSlicing.gnb.cellularNic.pdcp txEntityModuleType "\"simu5g.stack.pdcp.NrTxPdcpEntity\""
par NetworkSlicing.gnb.cellularNic.pdcp dualConnectivityManagerModule "\"^.dualConnectivityManager\""
scalar NetworkSlicing.gnb.cellularNic.pdcp sentPacketToLowerLayer:count 0
attr interpolationmode none
attr recordingmode count
attr source sentPacketToLowerLayer
scalar NetworkSlicing.gnb.cellularNic.pdcp sentPacketToLowerLayer:sum(packetBytes) 0
attr interpolationmode none
attr recordingmode sum(packetBytes)
attr source sentPacketToLowerLayer
scalar NetworkSlicing.gnb.cellularNic.pdcp sentPacketToUpperLayer:count 3496442
attr interpolationmode none
attr recordingmode count
attr source sentPacketToUpperLayer
scalar NetworkSlicing.gnb.cellularNic.pdcp sentPacketToUpperLayer:sum(packetBytes) 3966238660
attr interpolationmode none
attr recordingmode sum(packetBytes)
attr source sentPacketToUpperLayer
scalar NetworkSlicing.gnb.cellularNic.pdcp receivedPacketFromLowerLayer:count 3496442
attr interpolationmode none
attr recordingmode count
attr source receivedPacketFromLowerLayer
scalar NetworkSlicing.gnb.cellularNic.pdcp receivedPacketFromLowerLayer:sum(packetBytes) 3969735102
attr interpolationmode none
attr recordingmode sum(packetBytes)
attr source receivedPacketFromLowerLayer
scalar NetworkSlicing.gnb.cellularNic.pdcp receivedPacketFromUpperLayer:count 0
attr interpolationmode none
attr recordingmode count
attr source receivedPacketFromUpperLayer
scalar NetworkSlicing.gnb.cellularNic.pdcp receivedPacketFromUpperLayer:sum(packetBytes) 0
attr interpolationmode none
attr recordingmode sum(packetBytes)
attr source receivedPacketFromUpperLayer
par NetworkSlicing.gnb.cellularNic.rlc.tm typename "\"simu5g.stack.rlc.tm.LteRlcTm\""
par NetworkSlicing.gnb.cellularNic.rlc.tm queueSize 2097152B
attr unit B
scalar NetworkSlicing.gnb.cellularNic.rlc.tm rlcPacketLossUl:mean -nan
attr recordingmode mean
attr source rlcPacketLossUl
attr title "rlc Packet Loss, mean"
attr unit ""
scalar NetworkSlicing.gnb.cellularNic.rlc.tm rlcPacketLossUl:sum 0
attr recordingmode sum
attr source rlcPacketLossUl
attr title "rlc Packet Loss, sum"
attr unit ""
scalar NetworkSlicing.gnb.cellularNic.rlc.tm rlcPacketLossDl:mean -nan
attr recordingmode mean
attr source rlcPacketLossDl
attr title "rlc Packet Loss, mean"
attr unit ""
scalar NetworkSlicing.gnb.cellularNic.rlc.tm rlcPacketLossDl:sum 0
attr recordingmode sum
attr source rlcPacketLossDl
attr title "rlc Packet Loss, sum"
attr unit ""
scalar NetworkSlicing.gnb.cellularNic.rlc.tm sentPacketToLowerLayer:count 0
attr interpolationmode none
attr recordingmode count
attr source sentPacketToLowerLayer
scalar NetworkSlicing.gnb.cellularNic.rlc.tm sentPacketToLowerLayer:sum(packetBytes) 0
attr interpolationmode none
attr recordingmode sum(packetBytes)
attr source sentPacketToLowerLayer
scalar NetworkSlicing.gnb.cellularNic.rlc.tm sentPacketToUpperLayer:count 0
attr interpolationmode none
attr recordingmode count
attr source sentPacketToUpperLayer
scalar NetworkSlicing.gnb.cellularNic.rlc.tm sentPacketToUpperLayer:sum(packetBytes) 0
attr interpolationmode none
attr recordingmode sum(packetBytes)
attr source sentPacketToUpperLayer
scalar NetworkSlicing.gnb.cellularNic.rlc.tm receivedPacketFromLowerLayer:count 0
attr interpolationmode none
attr recordingmode count
attr source receivedPacketFromLowerLayer
scalar NetworkSlicing.gnb.cellularNic.rlc.tm receivedPacketFromLowerLayer:sum(packetBytes) 0
attr interpolationmode none
attr recordingmode sum(packetBytes)
attr source receivedPacketFromLowerLayer
scalar NetworkSlicing.gnb.cellularNic.rlc.tm receivedPacketFromUpperLayer:count 0
attr interpolationmode none
attr recordingmode count
attr source receivedPacketFromUpperLayer
scalar NetworkSlicing.gnb.cellularNic.rlc.tm receivedPacketFromUpperLayer:sum(packetBytes) 0
attr interpolationmode none
attr recordingmode sum(packetBytes)
attr source receivedPacketFromUpperLayer
par NetworkSlicing.gnb.cellularNic.rlc.um typename "\"simu5g.stack.rlc.um.LteRlcUmD2D\""
par NetworkSlicing.gnb.cellularNic.rlc.um txEntityModuleType "\"simu5g.stack.rlc.um.UmTxEntity\""
par NetworkSlicing.gnb.cellularNic.rlc.um rxEntityModuleType "\"simu5g.stack.rlc.um.UmRxEntity\""
par NetworkSlicing.gnb.cellularNic.rlc.um queueSize 2097152B
attr unit B
par NetworkSlicing.gnb.cellularNic.rlc.um mapAllLcidsToSingleBearer false
par NetworkSlicing.gnb.cellularNic.rlc.um nodeType "\"GNODEB\""
attr enum INTERNET,ENODEB,GNODEB,UE
scalar NetworkSlicing.gnb.cellularNic.rlc.um rlcCellThroughputD2D:simu5g_rateavg -nan
attr recordingmode simu5g_rateavg
attr source rlcCellThroughputD2D
attr title "Cell Throughput at the rlc layer D2D, simu5g_rateavg"
attr unit Bps
scalar NetworkSlicing.gnb.cellularNic.rlc.um rlcPduThroughputD2D:simu5g_rateavg -nan
attr recordingmode simu5g_rateavg
attr source rlcPduThroughputD2D
attr title "Throughput at the rlc layer D2D, simu5g_rateavg"
attr unit Bps
scalar NetworkSlicing.gnb.cellularNic.rlc.um rlcPduDelayD2D:mean -nan
attr recordingmode mean
attr source rlcPduDelayD2D
attr title "Delay at the rlc layer D2D, mean"
attr unit s
scalar NetworkSlicing.gnb.cellularNic.rlc.um rlcThroughputD2D:simu5g_rateavg -nan
attr recordingmode simu5g_rateavg
attr source rlcThroughputD2D
attr title "Throughput at the rlc layer D2D, simu5g_rateavg"
attr unit Bps
scalar NetworkSlicing.gnb.cellularNic.rlc.um rlcDelayD2D:mean -nan
attr recordingmode mean
attr source rlcDelayD2D
attr title "Delay at the rlc layer D2D, mean"
attr unit s
scalar NetworkSlicing.gnb.cellularNic.rlc.um rlcCellThroughputUl:simu5g_rateavg 2201261.8009646
attr recordingmode simu5g_rateavg
attr source rlcCellThroughputUl
attr title "Cell Throughput at the rlc layer UL, simu5g_rateavg"
attr unit Bps
scalar NetworkSlicing.gnb.cellularNic.rlc.um rlcCellThroughputDl:simu5g_rateavg -nan
attr recordingmode simu5g_rateavg
attr source rlcCellThroughputDl
attr title "Cell Throughput at the rlc layer DL, simu5g_rateavg"
attr unit Bps
scalar NetworkSlicing.gnb.cellularNic.rlc.um rlcPduThroughputUl:simu5g_rateavg -nan
attr recordingmode simu5g_rateavg
attr source rlcPduThroughputUl
attr title "Throughput at the rlc layer UL, simu5g_rateavg"
attr unit Bps
scalar NetworkSlicing.gnb.cellularNic.rlc.um rlcPduThroughputDl:simu5g_rateavg -nan
attr recordingmode simu5g_rateavg
attr source rlcPduThroughputDl
attr title "Throughput at the rlc layer DL, simu5g_rateavg"
attr unit Bps
scalar NetworkSlicing.gnb.cellularNic.rlc.um rlcPduDelayUl:mean -nan
attr recordingmode mean
attr source rlcPduDelayUl
attr title "Delay at the rlc layer UL, mean"
attr unit s
scalar NetworkSlicing.gnb.cellularNic.rlc.um rlcPduDelayDl:mean -nan
attr recordingmode mean
attr source rlcPduDelayDl
attr title "Delay at the rlc layer UL, mean"
attr unit s
scalar NetworkSlicing.gnb.cellularNic.rlc.um rlcThroughputUl:simu5g_rateavg -nan
attr recordingmode simu5g_rateavg
attr source rlcThroughputUl
attr title "Throughput at the rlc layer UL, simu5g_rateavg"
attr unit Bps
scalar NetworkSlicing.gnb.cellularNic.rlc.um rlcThroughputDl:simu5g_rateavg -nan
attr recordingmode simu5g_rateavg
attr source rlcThroughputDl
attr title "Throughput at the rlc layer DL, simu5g_rateavg"
attr unit Bps
scalar NetworkSlicing.gnb.cellularNic.rlc.um rlcDelayUl:mean -nan
attr recordingmode mean
attr source rlcDelayUl
attr title "Delay at the rlc layer UL, mean"
attr unit s
scalar NetworkSlicing.gnb.cellularNic.rlc.um rlcDelayDl:mean -nan
attr recordingmode mean
attr source rlcDelayDl
attr title "Delay at the rlc layer DL, mean"
attr unit s
scalar NetworkSlicing.gnb.cellularNic.rlc.um sentPacketToLowerLayer:count 0
attr interpolationmode none
attr recordingmode count
attr source sentPacketToLowerLayer
scalar NetworkSlicing.gnb.cellularNic.rlc.um sentPacketToLowerLayer:sum(packetBytes) 0
attr interpolationmode none
attr recordingmode sum(packetBytes)
attr source sentPacketToLowerLayer
scalar NetworkSlicing.gnb.cellularNic.rlc.um sentPacketToUpperLayer:count 3496442
attr interpolationmode none
attr recordingmode count
attr source sentPacketToUpperLayer
scalar NetworkSlicing.gnb.cellularNic.rlc.um sentPacketToUpperLayer:sum(packetBytes) 3969735102
attr interpolationmode none
attr recordingmode sum(packetBytes)
attr source sentPacketToUpperLayer
scalar NetworkSlicing.gnb.cellularNic.rlc.um receivedPacketFromLowerLayer:count 3272100
attr interpolationmode none
attr recordingmode count
attr source receivedPacketFromLowerLayer
scalar NetworkSlicing.gnb.cellularNic.rlc.um receivedPacketFromLowerLayer:sum(packetBytes) 3976280419
attr interpolationmode none
attr recordingmode sum(packetBytes)
attr source receivedPacketFromLowerLayer
scalar NetworkSlicing.gnb.cellularNic.rlc.um receivedPacketFromUpperLayer:count 0
attr interpolationmode none
attr recordingmode count
attr source receivedPacketFromUpperLayer
scalar NetworkSlicing.gnb.cellularNic.rlc.um receivedPacketFromUpperLayer:sum(packetBytes) 0
attr interpolationmode none
attr recordingmode sum(packetBytes)
attr source receivedPacketFromUpperLayer
par NetworkSlicing.gnb.cellularNic.rlc.am typename "\"simu5g.stack.rlc.am.LteRlcAm\""
par NetworkSlicing.gnb.cellularNic.rlc.am txEntityModuleType "\"simu5g.stack.rlc.am.AmTxQueue\""
par NetworkSlicing.gnb.cellularNic.rlc.am rxEntityModuleType "\"simu5g.stack.rlc.am.AmRxQueue\""
scalar NetworkSlicing.gnb.cellularNic.rlc.am rlcPacketLossTotal:mean -nan
attr recordingmode mean
attr source rlcPacketLossTotal
attr title "rlc Packet Loss, mean"
attr unit ""
scalar NetworkSlicing.gnb.cellularNic.rlc.am rlcCellThroughputUl:simu5g_rateavg -nan
attr recordingmode simu5g_rateavg
attr source rlcCellThroughputUl
attr title "Cell Throughput at the rlc layer UL, simu5g_rateavg"
attr unit Bps
scalar NetworkSlicing.gnb.cellularNic.rlc.am rlcCellThroughputDl:simu5g_rateavg -nan
attr recordingmode simu5g_rateavg
attr source rlcCellThroughputDl
attr title "Cell Throughput at the rlc layer DL, simu5g_rateavg"
attr unit Bps
scalar NetworkSlicing.gnb.cellularNic.rlc.am rlcPduThroughputUl:simu5g_rateavg -nan
attr recordingmode simu5g_rateavg
attr source rlcPduThroughputUl
attr title "Throughput at the rlc layer UL, simu5g_rateavg"
attr unit Bps
scalar NetworkSlicing.gnb.cellularNic.rlc.am rlcPduThroughputDl:simu5g_rateavg -nan
attr recordingmode simu5g_rateavg
attr source rlcPduThroughputDl
attr title "Throughput at the rlc layer DL, simu5g_rateavg"
attr unit Bps
scalar NetworkSlicing.gnb.cellularNic.rlc.am rlcPduDelayUl:mean -nan
attr recordingmode mean
attr source rlcPduDelayUl
attr title "Delay at the rlc layer UL, mean"
attr unit s
scalar NetworkSlicing.gnb.cellularNic.rlc.am rlcPduDelayDl:mean -nan
attr recordingmode mean
attr source rlcPduDelayDl
attr title "Delay at the rlc layer UL, mean"
attr unit s
scalar NetworkSlicing.gnb.cellularNic.rlc.am rlcThroughputUl:simu5g_rateavg -nan
attr recordingmode simu5g_rateavg
attr source rlcThroughputUl
attr title "Throughput at the rlc layer UL, simu5g_rateavg"
attr unit Bps
scalar NetworkSlicing.gnb.cellularNic.rlc.am rlcThroughputDl:simu5g_rateavg -nan
attr recordingmode simu5g_rateavg
attr source rlcThroughputDl
attr title "Throughput at the rlc layer DL, simu5g_rateavg"
attr unit Bps
scalar NetworkSlicing.gnb.cellularNic.rlc.am rlcDelayUl:mean -nan
attr recordingmode mean
attr source rlcDelayUl
attr title "Delay at the rlc layer UL, mean"
attr unit s
scalar NetworkSlicing.gnb.cellularNic.rlc.am rlcDelayDl:mean -nan
attr recordingmode mean
attr source rlcDelayDl
attr title "Delay at the rlc layer UL, mean"
attr unit s
scalar NetworkSlicing.gnb.cellularNic.rlc.am rlcPduPacketLossUl:mean -nan
attr recordingmode mean
attr source rlcPduPacketLossUl
attr title "rlc Packet Loss, mean"
attr unit ""
scalar NetworkSlicing.gnb.cellularNic.rlc.am rlcPduPacketLossDl:mean -nan
attr recordingmode mean
attr source rlcPduPacketLossDl
attr title "rlc Packet Loss, mean"
attr unit ""
scalar NetworkSlicing.gnb.cellularNic.rlc.am rlcPacketLossUl:mean -nan
attr recordingmode mean
attr source rlcPacketLossUl
attr title "rlc Packet Loss, mean"
attr unit ""
scalar NetworkSlicing.gnb.cellularNic.rlc.am rlcPacketLossDl:mean -nan
attr recordingmode mean
attr source rlcPacketLossDl
attr title "rlc Packet Loss, mean"
attr unit ""
scalar NetworkSlicing.gnb.cellularNic.rlc.am rlcCellPacketLossUl:mean -nan
attr recordingmode mean
attr source rlcCellPacketLossUl
attr title "rlc Cell Packet Loss, mean"
attr unit ""
scalar NetworkSlicing.gnb.cellularNic.rlc.am rlcCellPacketLossDl:mean -nan
attr recordingmode mean
attr source rlcCellPacketLossDl
attr title "rlc Cell Packet Loss, mean"
attr unit ""
par NetworkSlicing.gnb.cellularNic.rlc.mux typename "\"simu5g.stack.rlc.LteRlcMux\""
par "NetworkSlicing.gnb.cellularNic.rlc.UmRxEntity Lcid: 1 cid: 135266305" typename "\"simu5g.stack.rlc.um.UmRxEntity\""
par "NetworkSlicing.gnb.cellularNic.rlc.UmRxEntity Lcid: 1 cid: 135266305" binderModule "\"binder\""
par "NetworkSlicing.gnb.cellularNic.rlc.UmRxEntity Lcid: 1 cid: 135266305" umModule "\"^.um\""
par "NetworkSlicing.gnb.cellularNic.rlc.UmRxEntity Lcid: 1 cid: 135266305" macModule "\"^.^.mac\""
par "NetworkSlicing.gnb.cellularNic.rlc.UmRxEntity Lcid: 1 cid: 135266305" timeout 1s
attr unit s
par "NetworkSlicing.gnb.cellularNic.rlc.UmRxEntity Lcid: 1 cid: 135266305" rxWindowSize 16
par "NetworkSlicing.gnb.cellularNic.rlc.UmRxEntity Lcid: 1 cid: 134676481" typename "\"simu5g.stack.rlc.um.UmRxEntity\""
par "NetworkSlicing.gnb.cellularNic.rlc.UmRxEntity Lcid: 1 cid: 134676481" binderModule "\"binder\""
par "NetworkSlicing.gnb.cellularNic.rlc.UmRxEntity Lcid: 1 cid: 134676481" umModule "\"^.um\""
par "NetworkSlicing.gnb.cellularNic.rlc.UmRxEntity Lcid: 1 cid: 134676481" macModule "\"^.^.mac\""
par "NetworkSlicing.gnb.cellularNic.rlc.UmRxEntity Lcid: 1 cid: 134676481" timeout 1s
attr unit s
par "NetworkSlicing.gnb.cellularNic.rlc.UmRxEntity Lcid: 1 cid: 134676481" rxWindowSize 16
par "NetworkSlicing.gnb.cellularNic.rlc.UmRxEntity Lcid: 1 cid: 134873089" typename "\"simu5g.stack.rlc.um.UmRxEntity\""
par "NetworkSlicing.gnb.cellularNic.rlc.UmRxEntity Lcid: 1 cid: 134873089" binderModule "\"binder\""
par "NetworkSlicing.gnb.cellularNic.rlc.UmRxEntity Lcid: 1 cid: 134873089" umModule "\"^.um\""
par "NetworkSlicing.gnb.cellularNic.rlc.UmRxEntity Lcid: 1 cid: 134873089" macModule "\"^.^.mac\""
par "NetworkSlicing.gnb.cellularNic.rlc.UmRxEntity Lcid: 1 cid: 134873089" timeout 1s
attr unit s
par "NetworkSlicing.gnb.cellularNic.rlc.UmRxEntity Lcid: 1 cid: 134873089" rxWindowSize 16
par "NetworkSlicing.gnb.cellularNic.rlc.UmRxEntity Lcid: 1 cid: 134610945" typename "\"simu5g.stack.rlc.um.UmRxEntity\""
par "NetworkSlicing.gnb.cellularNic.rlc.UmRxEntity Lcid: 1 cid: 134610945" binderModule "\"binder\""
par "NetworkSlicing.gnb.cellularNic.rlc.UmRxEntity Lcid: 1 cid: 134610945" umModule "\"^.um\""
par "NetworkSlicing.gnb.cellularNic.rlc.UmRxEntity Lcid: 1 cid: 134610945" macModule "\"^.^.mac\""
par "NetworkSlicing.gnb.cellularNic.rlc.UmRxEntity Lcid: 1 cid: 134610945" timeout 1s
attr unit s
par "NetworkSlicing.gnb.cellularNic.rlc.UmRxEntity Lcid: 1 cid: 134610945" rxWindowSize 16
par "NetworkSlicing.gnb.cellularNic.rlc.UmRxEntity Lcid: 1 cid: 135069697" typename "\"simu5g.stack.rlc.um.UmRxEntity\""
par "NetworkSlicing.gnb.cellularNic.rlc.UmRxEntity Lcid: 1 cid: 135069697" binderModule "\"binder\""
par "NetworkSlicing.gnb.cellularNic.rlc.UmRxEntity Lcid: 1 cid: 135069697" umModule "\"^.um\""
par "NetworkSlicing.gnb.cellularNic.rlc.UmRxEntity Lcid: 1 cid: 135069697" macModule "\"^.^.mac\""
par "NetworkSlicing.gnb.cellularNic.rlc.UmRxEntity Lcid: 1 cid: 135069697" timeout 1s
attr unit s
par "NetworkSlicing.gnb.cellularNic.rlc.UmRxEntity Lcid: 1 cid: 135069697" rxWindowSize 16
par "NetworkSlicing.gnb.cellularNic.rlc.UmRxEntity Lcid: 1 cid: 134479873" typename "\"simu5g.stack.rlc.um.UmRxEntity\""
par "NetworkSlicing.gnb.cellularNic.rlc.UmRxEntity Lcid: 1 cid: 134479873" binderModule "\"binder\""
par "NetworkSlicing.gnb.cellularNic.rlc.UmRxEntity Lcid: 1 cid: 134479873" umModule "\"^.um\""
par "NetworkSlicing.gnb.cellularNic.rlc.UmRxEntity Lcid: 1 cid: 134479873" macModule "\"^.^.mac\""
par "NetworkSlicing.gnb.cellularNic.rlc.UmRxEntity Lcid: 1 cid: 134479873" timeout 1s
attr unit s
par "NetworkSlicing.gnb.cellularNic.rlc.UmRxEntity Lcid: 1 cid: 134479873" rxWindowSize 16
par "NetworkSlicing.gnb.cellularNic.rlc.UmRxEntity Lcid: 1 cid: 134938625" typename "\"simu5g.stack.rlc.um.UmRxEntity\""
par "NetworkSlicing.gnb.cellularNic.rlc.UmRxEntity Lcid: 1 cid: 134938625" binderModule "\"binder\""
par "NetworkSlicing.gnb.cellularNic.rlc.UmRxEntity Lcid: 1 cid: 134938625" umModule "\"^.um\""
par "NetworkSlicing.gnb.cellularNic.rlc.UmRxEntity Lcid: 1 cid: 134938625" macModule "\"^.^.mac\""
par "NetworkSlicing.gnb.cellularNic.rlc.UmRxEntity Lcid: 1 cid: 134938625" timeout 1s
attr unit s
par "NetworkSlicing.gnb.cellularNic.rlc.UmRxEntity Lcid: 1 cid: 134938625" rxWindowSize 16
par "NetworkSlicing.gnb.cellularNic.rlc.UmRxEntity Lcid: 1 cid: 134742017" typename "\"simu5g.stack.rlc.um.UmRxEntity\""
par "NetworkSlicing.gnb.cellularNic.rlc.UmRxEntity Lcid: 1 cid: 134742017" binderModule "\"binder\""
par "NetworkSlicing.gnb.cellularNic.rlc.UmRxEntity Lcid: 1 cid: 134742017" umModule "\"^.um\""
par "NetworkSlicing.gnb.cellularNic.rlc.UmRxEntity Lcid: 1 cid: 134742017" macModule "\"^.^.mac\""
par "NetworkSlicing.gnb.cellularNic.rlc.UmRxEntity Lcid: 1 cid: 134742017" timeout 1s
attr unit s
par "NetworkSlicing.gnb.cellularNic.rlc.UmRxEntity Lcid: 1 cid: 134742017" rxWindowSize 16
par "NetworkSlicing.gnb.cellularNic.rlc.UmRxEntity Lcid: 1 cid: 134807553" typename "\"simu5g.stack.rlc.um.UmRxEntity\""
par "NetworkSlicing.gnb.cellularNic.rlc.UmRxEntity Lcid: 1 cid: 134807553" binderModule "\"binder\""
par "NetworkSlicing.gnb.cellularNic.rlc.UmRxEntity Lcid: 1 cid: 134807553" umModule "\"^.um\""
par "NetworkSlicing.gnb.cellularNic.rlc.UmRxEntity Lcid: 1 cid: 134807553" macModule "\"^.^.mac\""
par "NetworkSlicing.gnb.cellularNic.rlc.UmRxEntity Lcid: 1 cid: 134807553" timeout 1s
attr unit s
par "NetworkSlicing.gnb.cellularNic.rlc.UmRxEntity Lcid: 1 cid: 134807553" rxWindowSize 16
par "NetworkSlicing.gnb.cellularNic.rlc.UmRxEntity Lcid: 1 cid: 135200769" typename "\"simu5g.stack.rlc.um.UmRxEntity\""
par "NetworkSlicing.gnb.cellularNic.rlc.UmRxEntity Lcid: 1 cid: 135200769" binderModule "\"binder\""
par "NetworkSlicing.gnb.cellularNic.rlc.UmRxEntity Lcid: 1 cid: 135200769" umModule "\"^.um\""
par "NetworkSlicing.gnb.cellularNic.rlc.UmRxEntity Lcid: 1 cid: 135200769" macModule "\"^.^.mac\""
par "NetworkSlicing.gnb.cellularNic.rlc.UmRxEntity Lcid: 1 cid: 135200769" timeout 1s
attr unit s
par "NetworkSlicing.gnb.cellularNic.rlc.UmRxEntity Lcid: 1 cid: 135200769" rxWindowSize 16
par "NetworkSlicing.gnb.cellularNic.rlc.UmRxEntity Lcid: 1 cid: 135135233" typename "\"simu5g.stack.rlc.um.UmRxEntity\""
par "NetworkSlicing.gnb.cellularNic.rlc.UmRxEntity Lcid: 1 cid: 135135233" binderModule "\"binder\""
par "NetworkSlicing.gnb.cellularNic.rlc.UmRxEntity Lcid: 1 cid: 135135233" umModule "\"^.um\""
par "NetworkSlicing.gnb.cellularNic.rlc.UmRxEntity Lcid: 1 cid: 135135233" macModule "\"^.^.mac\""
par "NetworkSlicing.gnb.cellularNic.rlc.UmRxEntity Lcid: 1 cid: 135135233" timeout 1s
attr unit s
par "NetworkSlicing.gnb.cellularNic.rlc.UmRxEntity Lcid: 1 cid: 135135233" rxWindowSize 16
par "NetworkSlicing.gnb.cellularNic.rlc.UmRxEntity Lcid: 1 cid: 134545409" typename "\"simu5g.stack.rlc.um.UmRxEntity\""
par "NetworkSlicing.gnb.cellularNic.rlc.UmRxEntity Lcid: 1 cid: 134545409" binderModule "\"binder\""
par "NetworkSlicing.gnb.cellularNic.rlc.UmRxEntity Lcid: 1 cid: 134545409" umModule "\"^.um\""
par "NetworkSlicing.gnb.cellularNic.rlc.UmRxEntity Lcid: 1 cid: 134545409" macModule "\"^.^.mac\""
par "NetworkSlicing.gnb.cellularNic.rlc.UmRxEntity Lcid: 1 cid: 134545409" timeout 1s
attr unit s
par "NetworkSlicing.gnb.cellularNic.rlc.UmRxEntity Lcid: 1 cid: 134545409" rxWindowSize 16
par "NetworkSlicing.gnb.cellularNic.rlc.UmRxEntity Lcid: 1 cid: 135004161" typename "\"simu5g.stack.rlc.um.UmRxEntity\""
par "NetworkSlicing.gnb.cellularNic.rlc.UmRxEntity Lcid: 1 cid: 135004161" binderModule "\"binder\""
par "NetworkSlicing.gnb.cellularNic.rlc.UmRxEntity Lcid: 1 cid: 135004161" umModule "\"^.um\""
par "NetworkSlicing.gnb.cellularNic.rlc.UmRxEntity Lcid: 1 cid: 135004161" macModule "\"^.^.mac\""
par "NetworkSlicing.gnb.cellularNic.rlc.UmRxEntity Lcid: 1 cid: 135004161" timeout 1s
attr unit s
par "NetworkSlicing.gnb.cellularNic.rlc.UmRxEntity Lcid: 1 cid: 135004161" rxWindowSize 16
par "NetworkSlicing.gnb.cellularNic.rlc.UmRxEntity Lcid: 1 cid: 135659521" typename "\"simu5g.stack.rlc.um.UmRxEntity\""
par "NetworkSlicing.gnb.cellularNic.rlc.UmRxEntity Lcid: 1 cid: 135659521" binderModule "\"binder\""
par "NetworkSlicing.gnb.cellularNic.rlc.UmRxEntity Lcid: 1 cid: 135659521" umModule "\"^.um\""
par "NetworkSlicing.gnb.cellularNic.rlc.UmRxEntity Lcid: 1 cid: 135659521" macModule "\"^.^.mac\""
par "NetworkSlicing.gnb.cellularNic.rlc.UmRxEntity Lcid: 1 cid: 135659521" timeout 1s
attr unit s
par "NetworkSlicing.gnb.cellularNic.rlc.UmRxEntity Lcid: 1 cid: 135659521" rxWindowSize 16
par "NetworkSlicing.gnb.cellularNic.rlc.UmRxEntity Lcid: 1 cid: 134283265" typename "\"simu5g.stack.rlc.um.UmRxEntity\""
par "NetworkSlicing.gnb.cellularNic.rlc.UmRxEntity Lcid: 1 cid: 134283265" binderModule "\"binder\""
par "NetworkSlicing.gnb.cellularNic.rlc.UmRxEntity Lcid: 1 cid: 134283265" umModule "\"^.um\""
par "NetworkSlicing.gnb.cellularNic.rlc.UmRxEntity Lcid: 1 cid: 134283265" macModule "\"^.^.mac\""
par "NetworkSlicing.gnb.cellularNic.rlc.UmRxEntity Lcid: 1 cid: 134283265" timeout 1s
attr unit s
par "NetworkSlicing.gnb.cellularNic.rlc.UmRxEntity Lcid: 1 cid: 134283265" rxWindowSize 16
par "NetworkSlicing.gnb.cellularNic.rlc.UmRxEntity Lcid: 1 cid: 134414337" typename "\"simu5g.stack.rlc.um.UmRxEntity\""
par "NetworkSlicing.gnb.cellularNic.rlc.UmRxEntity Lcid: 1 cid: 134414337" binderModule "\"binder\""
par "NetworkSlicing.gnb.cellularNic.rlc.UmRxEntity Lcid: 1 cid: 134414337" umModule "\"^.um\""
par "NetworkSlicing.gnb.cellularNic.rlc.UmRxEntity Lcid: 1 cid: 134414337" macModule "\"^.^.mac\""
par "NetworkSlicing.gnb.cellularNic.rlc.UmRxEntity Lcid: 1 cid: 134414337" timeout 1s
attr unit s
par "NetworkSlicing.gnb.cellularNic.rlc.UmRxEntity Lcid: 1 cid: 134414337" rxWindowSize 16
par "NetworkSlicing.gnb.cellularNic.rlc.UmRxEntity Lcid: 1 cid: 134348801" typename "\"simu5g.stack.rlc.um.UmRxEntity\""
par "NetworkSlicing.gnb.cellularNic.rlc.UmRxEntity Lcid: 1 cid: 134348801" binderModule "\"binder\""
par "NetworkSlicing.gnb.cellularNic.rlc.UmRxEntity Lcid: 1 cid: 134348801" umModule "\"^.um\""
par "NetworkSlicing.gnb.cellularNic.rlc.UmRxEntity Lcid: 1 cid: 134348801" macModule "\"^.^.mac\""
par "NetworkSlicing.gnb.cellularNic.rlc.UmRxEntity Lcid: 1 cid: 134348801" timeout 1s
attr unit s
par "NetworkSlicing.gnb.cellularNic.rlc.UmRxEntity Lcid: 1 cid: 134348801" rxWindowSize 16
par "NetworkSlicing.gnb.cellularNic.rlc.UmRxEntity Lcid: 1 cid: 135593985" typename "\"simu5g.stack.rlc.um.UmRxEntity\""
par "NetworkSlicing.gnb.cellularNic.rlc.UmRxEntity Lcid: 1 cid: 135593985" binderModule "\"binder\""
par "NetworkSlicing.gnb.cellularNic.rlc.UmRxEntity Lcid: 1 cid: 135593985" umModule "\"^.um\""
par "NetworkSlicing.gnb.cellularNic.rlc.UmRxEntity Lcid: 1 cid: 135593985" macModule "\"^.^.mac\""
par "NetworkSlicing.gnb.cellularNic.rlc.UmRxEntity Lcid: 1 cid: 135593985" timeout 1s
attr unit s
par "NetworkSlicing.gnb.cellularNic.rlc.UmRxEntity Lcid: 1 cid: 135593985" rxWindowSize 16
par "NetworkSlicing.gnb.cellularNic.rlc.UmRxEntity Lcid: 1 cid: 135528449" typename "\"simu5g.stack.rlc.um.UmRxEntity\""
par "NetworkSlicing.gnb.cellularNic.rlc.UmRxEntity Lcid: 1 cid: 135528449" binderModule "\"binder\""
par "NetworkSlicing.gnb.cellularNic.rlc.UmRxEntity Lcid: 1 cid: 135528449" umModule "\"^.um\""
par "NetworkSlicing.gnb.cellularNic.rlc.UmRxEntity Lcid: 1 cid: 135528449" macModule "\"^.^.mac\""
par "NetworkSlicing.gnb.cellularNic.rlc.UmRxEntity Lcid: 1 cid: 135528449" timeout 1s
attr unit s
par "NetworkSlicing.gnb.cellularNic.rlc.UmRxEntity Lcid: 1 cid: 135528449" rxWindowSize 16
par "NetworkSlicing.gnb.cellularNic.rlc.UmRxEntity Lcid: 1 cid: 135397377" typename "\"simu5g.stack.rlc.um.UmRxEntity\""
par "NetworkSlicing.gnb.cellularNic.rlc.UmRxEntity Lcid: 1 cid: 135397377" binderModule "\"binder\""
par "NetworkSlicing.gnb.cellularNic.rlc.UmRxEntity Lcid: 1 cid: 135397377" umModule "\"^.um\""
par "NetworkSlicing.gnb.cellularNic.rlc.UmRxEntity Lcid: 1 cid: 135397377" macModule "\"^.^.mac\""
par "NetworkSlicing.gnb.cellularNic.rlc.UmRxEntity Lcid: 1 cid: 135397377" timeout 1s
attr unit s
par "NetworkSlicing.gnb.cellularNic.rlc.UmRxEntity Lcid: 1 cid: 135397377" rxWindowSize 16
par "NetworkSlicing.gnb.cellularNic.rlc.UmRxEntity Lcid: 1 cid: 135331841" typename "\"simu5g.stack.rlc.um.UmRxEntity\""
par "NetworkSlicing.gnb.cellularNic.rlc.UmRxEntity Lcid: 1 cid: 135331841" binderModule "\"binder\""
par "NetworkSlicing.gnb.cellularNic.rlc.UmRxEntity Lcid: 1 cid: 135331841" umModule "\"^.um\""
par "NetworkSlicing.gnb.cellularNic.rlc.UmRxEntity Lcid: 1 cid: 135331841" macModule "\"^.^.mac\""
par "NetworkSlicing.gnb.cellularNic.rlc.UmRxEntity Lcid: 1 cid: 135331841" timeout 1s
attr unit s
par "NetworkSlicing.gnb.cellularNic.rlc.UmRxEntity Lcid: 1 cid: 135331841" rxWindowSize 16
par "NetworkSlicing.gnb.cellularNic.rlc.UmRxEntity Lcid: 1 cid: 135462913" typename "\"simu5g.stack.rlc.um.UmRxEntity\""
par "NetworkSlicing.gnb.cellularNic.rlc.UmRxEntity Lcid: 1 cid: 135462913" binderModule "\"binder\""
par "NetworkSlicing.gnb.cellularNic.rlc.UmRxEntity Lcid: 1 cid: 135462913" umModule "\"^.um\""
par "NetworkSlicing.gnb.cellularNic.rlc.UmRxEntity Lcid: 1 cid: 135462913" macModule "\"^.^.mac\""
par "NetworkSlicing.gnb.cellularNic.rlc.UmRxEntity Lcid: 1 cid: 135462913" timeout 1s
attr unit s
par "NetworkSlicing.gnb.cellularNic.rlc.UmRxEntity Lcid: 1 cid: 135462913" rxWindowSize 16
par NetworkSlicing.gnb.cellularNic.rlc typename "\"simu5g.stack.rlc.LteRlc\""
par NetworkSlicing.gnb.cellularNic.rlc d2dCapable true
par NetworkSlicing.gnb.cellularNic.mac typename "\"simu5g.stack.mac.NrMacGnb\""
par NetworkSlicing.gnb.cellularNic.mac binderModule "\"binder\""
par NetworkSlicing.gnb.cellularNic.mac packetFlowObserverModule "\"^.packetFlowObserver\""
par NetworkSlicing.gnb.cellularNic.mac queueSize 2097152B
attr unit B
par NetworkSlicing.gnb.cellularNic.mac muMimo true
par NetworkSlicing.gnb.cellularNic.mac harqProcesses 8
par NetworkSlicing.gnb.cellularNic.mac maxHarqRtx 3
par NetworkSlicing.gnb.cellularNic.mac harqFbEvaluationTimer 4
par NetworkSlicing.gnb.cellularNic.mac statDisplay false
par NetworkSlicing.gnb.cellularNic.mac amcType "\"NrAmc\""
attr enum LteAmc,NrAmc
par NetworkSlicing.gnb.cellularNic.mac amcMode "\"AUTO\""
attr enum AUTO,D2D
par NetworkSlicing.gnb.cellularNic.mac rbAllocationType "\"localized\""
attr enum distributed,localized
par NetworkSlicing.gnb.cellularNic.mac summaryLowerBound 0.005s
attr unit s
par NetworkSlicing.gnb.cellularNic.mac summaryUpperBound 0.02s
attr unit s
par NetworkSlicing.gnb.cellularNic.mac fbhbCapacityDl 5
par NetworkSlicing.gnb.cellularNic.mac fbhbCapacityUl 5
par NetworkSlicing.gnb.cellularNic.mac fbhbCapacityD2D 5
par NetworkSlicing.gnb.cellularNic.mac pmiWeight 0
par NetworkSlicing.gnb.cellularNic.mac cqiWeight 0
par NetworkSlicing.gnb.cellularNic.mac eNodeBCount 0
par NetworkSlicing.gnb.cellularNic.mac schedulingDisciplineDl "\"MAXCI\""
attr enum DRR,PF,MAXCI,MAXCI_MB,MAXCI_OPT_MB,MAXCI_COMP,ALLOCATOR_BESTFIT
par NetworkSlicing.gnb.cellularNic.mac schedulingDisciplineUl "\"MAXCI\""
attr enum DRR,PF,MAXCI,MAXCI_MB,MAXCI_OPT_MB,MAXCI_COMP,ALLOCATOR_BESTFIT
par NetworkSlicing.gnb.cellularNic.mac pfAlpha 0.95
par NetworkSlicing.gnb.cellularNic.mac pilotMode "\"ROBUST_CQI\""
attr enum IN_CQI,MAX_CQI,AVG_CQI,MEDIAN_CQI,ROBUST_CQI
par NetworkSlicing.gnb.cellularNic.mac cellInfoModule "\"NetworkSlicing.gnb.cellInfo\""
par NetworkSlicing.gnb.cellularNic.mac rlcUmModule "\"^.rlc.um\""
par NetworkSlicing.gnb.cellularNic.mac pdcpModule "\"^.pdcp\""
par NetworkSlicing.gnb.cellularNic.mac usePreconfiguredTxParams false
par NetworkSlicing.gnb.cellularNic.mac d2dCqi 7
par NetworkSlicing.gnb.cellularNic.mac reuseD2D false
par NetworkSlicing.gnb.cellularNic.mac reuseD2DMulti false
par NetworkSlicing.gnb.cellularNic.mac conflictGraphUpdatePeriod 1s
attr unit s
par NetworkSlicing.gnb.cellularNic.mac conflictGraphThreshold 90
par NetworkSlicing.gnb.cellularNic.mac conflictGraphD2DInterferenceRadius -1m
attr unit m
par NetworkSlicing.gnb.cellularNic.mac conflictGraphD2DMultiTxRadius -1m
attr unit m
par NetworkSlicing.gnb.cellularNic.mac conflictGraphD2DMultiInterferenceRadius -1m
attr unit m
par NetworkSlicing.gnb.cellularNic.mac msHarqInterrupt true
par NetworkSlicing.gnb.cellularNic.mac msClearRlcBuffer true
scalar NetworkSlicing.gnb.cellularNic.mac avgServedBlocksUl:mean 15.714351666667
attr recordingmode mean
attr source avgServedBlocksUl
attr title "Average number of allocated Resource Blocks in the Dl, mean"
attr unit blocks
scalar NetworkSlicing.gnb.cellularNic.mac avgServedBlocksDl:mean 0
attr recordingmode mean
attr source avgServedBlocksDl
attr title "Average number of allocated Resource Blocks in the Dl, mean"
attr unit blocks
scalar NetworkSlicing.gnb.cellularNic.mac macCellPacketLossD2D:mean -nan
attr recordingmode mean
attr source macCellPacketLossD2D
attr title "Mac Cell Packet Loss D2D, mean"
attr unit ""
scalar NetworkSlicing.gnb.cellularNic.mac macCellThroughputD2D:simu5g_rateavg -nan
attr recordingmode simu5g_rateavg
attr source macCellThroughputD2D
attr title "Cell Throughput at the MAC layer D2D, simu5g_rateavg"
attr unit Bps
scalar NetworkSlicing.gnb.cellularNic.mac harqTxAttemptsUl:mean -nan
attr recordingmode mean
attr source harqTxAttemptsUl
attr title "Harq Tx Attempts Ul, mean"
attr unit ""
scalar NetworkSlicing.gnb.cellularNic.mac harqTxAttemptsDl:mean -nan
attr recordingmode mean
attr source harqTxAttemptsDl
attr title "Harq Tx Attempts Dl, mean"
attr unit ""
scalar NetworkSlicing.gnb.cellularNic.mac harqErrorRate_4th_Ul:mean -nan
attr recordingmode mean
attr source harqErrorRate_4th_Ul
attr title "Harq Error Rate Ul (4th tx), mean"
attr unit ""
scalar NetworkSlicing.gnb.cellularNic.mac harqErrorRate_4th_Dl:mean -nan
attr recordingmode mean
attr source harqErrorRate_4th_Dl
attr title "Harq Error Rate Dl (4th tx), mean"
attr unit ""
scalar NetworkSlicing.gnb.cellularNic.mac harqErrorRate_3rd_Ul:mean -nan
attr recordingmode mean
attr source harqErrorRate_3rd_Ul
attr title "Harq Error Rate Ul (3rd tx), mean"
attr unit ""
scalar NetworkSlicing.gnb.cellularNic.mac harqErrorRate_3rd_Dl:mean -nan
attr recordingmode mean
attr source harqErrorRate_3rd_Dl
attr title "Harq Error Rate Dl (3rd tx), mean"
attr unit ""
scalar NetworkSlicing.gnb.cellularNic.mac harqErrorRate_2nd_Ul:mean -nan
attr recordingmode mean
attr source harqErrorRate_2nd_Ul
attr title "Harq Error Rate Ul (2nd tx), mean"
attr unit ""
scalar NetworkSlicing.gnb.cellularNic.mac harqErrorRate_2nd_Dl:mean -nan
attr recordingmode mean
attr source harqErrorRate_2nd_Dl
attr title "Harq Error Rate Dl (2nd tx), mean"
attr unit ""
scalar NetworkSlicing.gnb.cellularNic.mac harqErrorRate_1st_Ul:mean -nan
attr recordingmode mean
attr source harqErrorRate_1st_Ul
attr title "Harq Error Rate Ul (1st tx), mean"
attr unit ""
scalar NetworkSlicing.gnb.cellularNic.mac harqErrorRate_1st_Dl:mean -nan
attr recordingmode mean
attr source harqErrorRate_1st_Dl
attr title "Harq Error Rate Dl (1st tx), mean"
attr unit ""
scalar NetworkSlicing.gnb.cellularNic.mac harqErrorRateUl:mean -nan
attr recordingmode mean
attr source harqErrorRateUl
attr title "Harq Error Rate Ul, mean"
attr unit ""
scalar NetworkSlicing.gnb.cellularNic.mac harqErrorRateDl:mean -nan
attr recordingmode mean
attr source harqErrorRateDl
attr title "Harq Error Rate Dl, mean"
attr unit ""
scalar NetworkSlicing.gnb.cellularNic.mac macCellPacketLossUl:mean 0
attr recordingmode mean
attr source macCellPacketLossUl
attr title "Mac Cell Packet Loss Ul, mean"
attr unit ""
scalar NetworkSlicing.gnb.cellularNic.mac macCellPacketLossDl:mean -nan
attr recordingmode mean
attr source macCellPacketLossDl
attr title "Mac Cell Packet Loss Dl, mean"
attr unit ""
scalar NetworkSlicing.gnb.cellularNic.mac macPacketLossUl:mean -nan
attr recordingmode mean
attr source macPacketLossUl
attr title "Mac Packet Loss Ul, mean"
attr unit ""
scalar NetworkSlicing.gnb.cellularNic.mac macPacketLossDl:mean -nan
attr recordingmode mean
attr source macPacketLossDl
attr title "Mac Packet Loss Dl, mean"
attr unit ""
scalar NetworkSlicing.gnb.cellularNic.mac macThroughputUl:simu5g_rateavg -nan
attr recordingmode simu5g_rateavg
attr source macThroughputUl
attr title "Throughput at the MAC layer UL, simu5g_rateavg"
attr unit Bps
scalar NetworkSlicing.gnb.cellularNic.mac macThroughputDl:simu5g_rateavg -nan
attr recordingmode simu5g_rateavg
attr source macThroughputDl
attr title "Throughput at the MAC layer DL, simu5g_rateavg"
attr unit Bps
scalar NetworkSlicing.gnb.cellularNic.mac macDelayUl:mean -nan
attr recordingmode mean
attr source macDelayUl
attr title "Delay at the MAC layer UL, mean"
attr unit s
scalar NetworkSlicing.gnb.cellularNic.mac macDelayDl:mean -nan
attr recordingmode mean
attr source macDelayDl
attr title "Delay at the MAC layer UL, mean"
attr unit s
scalar NetworkSlicing.gnb.cellularNic.mac macCellThroughputUl:simu5g_rateavg 2208531.1981837
attr recordingmode simu5g_rateavg
attr source macCellThroughputUl
attr title "Cell Throughput at the MAC layer UL, simu5g_rateavg"
attr unit Bps
scalar NetworkSlicing.gnb.cellularNic.mac macCellThroughputDl:simu5g_rateavg -nan
attr recordingmode simu5g_rateavg
attr source macCellThroughputDl
attr title "Cell Throughput at the MAC layer DL, simu5g_rateavg"
attr unit Bps
scalar NetworkSlicing.gnb.cellularNic.mac macBufferOverFlowD2D:mean -nan
attr recordingmode mean
attr source macBufferOverFlowD2D
attr title "Mac buffer overflow as function of time, mean"
attr unit Byte/s
scalar NetworkSlicing.gnb.cellularNic.mac macBufferOverFlowUl:mean -nan
attr recordingmode mean
attr source macBufferOverFlowUl
attr title "Mac buffer overflow as function of time, mean"
attr unit Byte/s
scalar NetworkSlicing.gnb.cellularNic.mac macBufferOverFlowDl:mean -nan
attr recordingmode mean
attr source macBufferOverFlowDl
attr title "Mac buffer overflow as function of time, mean"
attr unit Byte/s
par NetworkSlicing.gnb.cellularNic.phy typename "\"simu5g.stack.phy.LtePhyEnbD2D\""
par NetworkSlicing.gnb.cellularNic.phy ueTxPower 26dBm
attr unit dBm
par NetworkSlicing.gnb.cellularNic.phy eNodeBTxPower 40dBm
attr unit dBm
par NetworkSlicing.gnb.cellularNic.phy microTxPower 30dBm
attr unit dBm
par NetworkSlicing.gnb.cellularNic.phy txDirection "\"OMNI\""
attr enum ANISOTROPIC,OMNI
par NetworkSlicing.gnb.cellularNic.phy txAngle 0deg
attr unit deg
par NetworkSlicing.gnb.cellularNic.phy dynamicCellAssociation false
par NetworkSlicing.gnb.cellularNic.phy enableHandover false
par NetworkSlicing.gnb.cellularNic.phy handoverLatency 0.05s
attr unit s
par NetworkSlicing.gnb.cellularNic.phy enableMulticastD2DRangeCheck false
par NetworkSlicing.gnb.cellularNic.phy multicastD2DRange 1000m
attr unit m
par NetworkSlicing.gnb.cellularNic.phy binderModule "\"binder\""
par NetworkSlicing.gnb.cellularNic.phy channelModelModule "\"^.channelModel[0]\""
par NetworkSlicing.gnb.cellularNic.phy targetBler 0.01
par NetworkSlicing.gnb.cellularNic.phy lambdaMinTh 0.02
par NetworkSlicing.gnb.cellularNic.phy lambdaMaxTh 0.2
par NetworkSlicing.gnb.cellularNic.phy lambdaRatioTh 20
par NetworkSlicing.gnb.cellularNic.phy enableD2DCqiReporting true
par NetworkSlicing.gnb.cellularNic.channelModel[0] typename "\"simu5g.stack.phy.channelmodel.NrChannelModel_3GPP38_901\""
par NetworkSlicing.gnb.cellularNic.channelModel[0] binderModule "\"binder\""
par NetworkSlicing.gnb.cellularNic.channelModel[0] cellInfoModule "\"NetworkSlicing.gnb.cellInfo\""
par NetworkSlicing.gnb.cellularNic.channelModel[0] componentCarrierModule "\"carrierAggregation.componentCarrier[0]\""
par NetworkSlicing.gnb.cellularNic.channelModel[0] shadowing true
par NetworkSlicing.gnb.cellularNic.channelModel[0] scenario "\"URBAN_MACROCELL\""
attr enum INDOOR_HOTSPOT,URBAN_MICROCELL,URBAN_MACROCELL,RURAL_MACROCELL,SUBURBAN_MACROCELL,UNKNOW_SCENARIO
par NetworkSlicing.gnb.cellularNic.channelModel[0] nodebHeight 25m
attr unit m
par NetworkSlicing.gnb.cellularNic.channelModel[0] buildingHeight 20m
attr unit m
par NetworkSlicing.gnb.cellularNic.channelModel[0] insideBuilding false
par NetworkSlicing.gnb.cellularNic.channelModel[0] streetWidth 20m
attr unit m
par NetworkSlicing.gnb.cellularNic.channelModel[0] ueHeight 1.5m
attr unit m
par NetworkSlicing.gnb.cellularNic.channelModel[0] tolerateMaxDistViolation false
par NetworkSlicing.gnb.cellularNic.channelModel[0] useTorus false
par NetworkSlicing.gnb.cellularNic.channelModel[0] correlationDistance 50m
attr unit m
par NetworkSlicing.gnb.cellularNic.channelModel[0] targetBler 0.01
par NetworkSlicing.gnb.cellularNic.channelModel[0] harqReduction 0.2
par NetworkSlicing.gnb.cellularNic.channelModel[0] lambdaMinTh 0.02
par NetworkSlicing.gnb.cellularNic.channelModel[0] lambdaMaxTh 0.2
par NetworkSlicing.gnb.cellularNic.channelModel[0] lambdaRatioTh 20
par NetworkSlicing.gnb.cellularNic.channelModel[0] antennaGainUe 0dBi
attr unit dBi
par NetworkSlicing.gnb.cellularNic.channelModel[0] antennGainEnB 18dBi
attr unit dBi
par NetworkSlicing.gnb.cellularNic.channelModel[0] antennGainMicro 5dBi
attr unit dBi
par NetworkSlicing.gnb.cellularNic.channelModel[0] thermalNoise -104.5dBm
attr unit dBm
par NetworkSlicing.gnb.cellularNic.channelModel[0] ueNoiseFigure 7dBm
attr unit dBm
par NetworkSlicing.gnb.cellularNic.channelModel[0] bsNoiseFigure 5dBm
attr unit dBm
par NetworkSlicing.gnb.cellularNic.channelModel[0] cableLoss 2dB
attr unit dB
par NetworkSlicing.gnb.cellularNic.channelModel[0] dynamicLos false
par NetworkSlicing.gnb.cellularNic.channelModel[0] fixedLos false
par NetworkSlicing.gnb.cellularNic.channelModel[0] fading true
par NetworkSlicing.gnb.cellularNic.channelModel[0] fadingType "\"JAKES\""
attr enum RAYLEIGH,JAKES
par NetworkSlicing.gnb.cellularNic.channelModel[0] numFadingPaths 6
par NetworkSlicing.gnb.cellularNic.channelModel[0] delayRms 3.63e-07s
attr unit s
par NetworkSlicing.gnb.cellularNic.channelModel[0] bgCellInterference true
par NetworkSlicing.gnb.cellularNic.channelModel[0] extCellInterference true
par NetworkSlicing.gnb.cellularNic.channelModel[0] downlinkInterference false
par NetworkSlicing.gnb.cellularNic.channelModel[0] uplinkInterference false
par NetworkSlicing.gnb.cellularNic.channelModel[0] d2dInterference true
par NetworkSlicing.gnb.cellularNic.channelModel[0] enableExtCellLos true
par NetworkSlicing.gnb.cellularNic.channelModel[0] collectSinrStatistics true
par NetworkSlicing.gnb.cellularNic.channelModel[0] useBuildingPenetrationLossHighLossModel false
scalar NetworkSlicing.gnb.cellularNic.channelModel[0] measuredSinrUl:mean -nan
attr recordingmode mean
attr source measuredSinrUl
attr title "SINR measured at feedback computation, UL, mean"
attr unit dB
scalar NetworkSlicing.gnb.cellularNic.channelModel[0] measuredSinrDl:mean -nan
attr recordingmode mean
attr source measuredSinrDl
attr title "SINR measured at feedback computation, DL, mean"
attr unit dB
scalar NetworkSlicing.gnb.cellularNic.channelModel[0] rcvdSinrD2D:mean -nan
attr recordingmode mean
attr source rcvdSinrD2D
attr title "SINR measured at packet reception, D2D, mean"
attr unit dB
scalar NetworkSlicing.gnb.cellularNic.channelModel[0] rcvdSinrUl:mean -nan
attr recordingmode mean
attr source rcvdSinrUl
attr title "SINR measured at packet reception, UL, mean"
attr unit dB
scalar NetworkSlicing.gnb.cellularNic.channelModel[0] rcvdSinrDl:mean -nan
attr recordingmode mean
attr source rcvdSinrDl
attr title "SINR measured at packet reception, DL, mean"
attr unit dB
par NetworkSlicing.gnb.cellularNic.x2Manager typename "\"simu5g.x2.LteX2Manager\""
par NetworkSlicing.gnb.cellularNic.x2Manager interfaceTableModule "\"NetworkSlicing.gnb.interfaceTable\""
par NetworkSlicing.gnb.cellularNic.x2Manager binderModule "\"binder\""
par NetworkSlicing.gnb.cellularNic.handoverManager typename "\"simu5g.stack.handoverManager.LteHandoverManager\""
par NetworkSlicing.gnb.cellularNic.handoverManager losslessHandover false
par NetworkSlicing.gnb.cellularNic.handoverManager ip2nicModule "\"^.ip2nic\""
par NetworkSlicing.gnb.cellularNic.bgTrafficGenerator[0].manager typename "\"simu5g.background.trafficGenerator.BackgroundTrafficManager\""
par NetworkSlicing.gnb.cellularNic.bgTrafficGenerator[0].manager binderModule "\"binder\""
par NetworkSlicing.gnb.cellularNic.bgTrafficGenerator[0].manager numBgUes 0
par NetworkSlicing.gnb.cellularNic.bgTrafficGenerator[0].manager macModule "\"^.^.mac\""
par NetworkSlicing.gnb.cellularNic.bgTrafficGenerator[0].manager phyModule "\"^.^.phy\""
par NetworkSlicing.gnb.cellularNic.bgTrafficGenerator[0].manager enablePeriodicCqiUpdate true
par NetworkSlicing.gnb.cellularNic.bgTrafficGenerator[0].manager computeAvgInterference false
par NetworkSlicing.gnb.cellularNic.bgTrafficGenerator[0] typename "\"simu5g.background.trafficGenerator.BackgroundTrafficGenerator\""
par NetworkSlicing.gnb.cellularNic.bgTrafficGenerator[0] numBgUes 0
par NetworkSlicing.gnb.cellularNic.bgTrafficGenerator[0] enablePeriodicCqiUpdate true
par NetworkSlicing.gnb.cellularNic.bgTrafficGenerator[0] useProbabilisticCqi false
par NetworkSlicing.gnb.cellularNic.bgTrafficGenerator[0] computeAvgInterference false
par NetworkSlicing.gnb.cellularNic.d2dModeSelection typename "\"simu5g.stack.d2dModeSelection.D2dModeSelectionBase\""
par NetworkSlicing.gnb.cellularNic.d2dModeSelection modeSelectionPeriod 1s
attr unit s
par NetworkSlicing.gnb.cellularNic.d2dModeSelection binderModule "\"binder\""
par NetworkSlicing.gnb.cellularNic.d2dModeSelection macModule "\"^.mac\""
par NetworkSlicing.gnb.cellularNic typename "\"simu5g.stack.NrNicEnb\""
par NetworkSlicing.gnb.cellularNic displayStringTextFormat "\"%a (%i)\\n%m\""
par NetworkSlicing.gnb.cellularNic recordPcap false
par NetworkSlicing.gnb.cellularNic numPcapRecorders 0
par NetworkSlicing.gnb.cellularNic isWireless true
par NetworkSlicing.gnb.cellularNic interfaceTableModule "\"NetworkSlicing.gnb.interfaceTable\""
par NetworkSlicing.gnb.cellularNic routingTableModule "\"^.ipv4.routingTable\""
par NetworkSlicing.gnb.cellularNic hasRniSupport false
par NetworkSlicing.gnb.cellularNic nodeType "\"GNODEB\""
par NetworkSlicing.gnb.cellularNic processingDelayIn 0s
attr unit s
par NetworkSlicing.gnb.cellularNic processingDelayOut 0s
attr unit s
par NetworkSlicing.gnb.cellularNic lteChannelModelType "\"NrChannelModel_3GPP38_901\""
par NetworkSlicing.gnb.cellularNic d2dCapable true
par NetworkSlicing.gnb.cellularNic dualConnectivityEnabled false
par NetworkSlicing.gnb.cellularNic numCarriers 1
par NetworkSlicing.gnb.cellularNic address "\"0A-AA-00-00-00-01\""
attr mutable ""
par NetworkSlicing.gnb.cellularNic compEnabled false
scalar NetworkSlicing.gnb.cellularNic packetDropInterfaceDown:count 0
attr interpolationmode none
attr recordingmode count
attr source packetDropReasonIsInterfaceDown(packetDropped)
attr title "packet drops: interface down, count"
scalar NetworkSlicing.gnb.cellularNic packetDropInterfaceDown:sum(packetBytes) 0
attr interpolationmode none
attr recordingmode sum(packetBytes)
attr source packetDropReasonIsInterfaceDown(packetDropped)
attr title "packet drops: interface down, sum(packetBytes)"
scalar NetworkSlicing.gnb.cellularNic packetDropNoCarrier:count 0
attr interpolationmode none
attr recordingmode count
attr source packetDropReasonIsNoCarrier(packetDropped)
attr title "packet drops: no carrier, count"
scalar NetworkSlicing.gnb.cellularNic packetDropNoCarrier:sum(packetBytes) 0
attr interpolationmode none
attr recordingmode sum(packetBytes)
attr source packetDropReasonIsNoCarrier(packetDropped)
attr title "packet drops: no carrier, sum(packetBytes)"
par NetworkSlicing.gnb.pppIf.phys$i.channel typename "\"ned.IdealChannel\""
par NetworkSlicing.gnb.pppIf.ppp.phys$o.channel typename "\"ned.IdealChannel\""
par NetworkSlicing.gnb.pppIf.ppp.upperLayerOut.channel typename "\"ned.IdealChannel\""
par NetworkSlicing.gnb.pppIf.upperLayerIn.channel typename "\"ned.IdealChannel\""
par NetworkSlicing.gnb.pppIf.queue typename "\"inet.queueing.queue.DropTailQueue\""
par NetworkSlicing.gnb.pppIf.queue displayStringTextFormat "\"contains %p pk (%l) pushed %u\\npulled %o removed %r dropped %d\""
par NetworkSlicing.gnb.pppIf.queue packetCapacity 10000
par NetworkSlicing.gnb.pppIf.queue dataCapacity -1b
attr unit b
par NetworkSlicing.gnb.pppIf.queue dropperClass "\"inet::queueing::PacketAtCollectionEndDropper\""
par NetworkSlicing.gnb.pppIf.queue comparatorClass "\"\""
par NetworkSlicing.gnb.pppIf.queue bufferModule "\"\""
scalar NetworkSlicing.gnb.pppIf.queue queueLength:last 3
attr autoWarmupFilter false
attr interpolationmode sample-hold
attr recordingmode last
attr source "warmup(atomic(constant0(packetPushEnded) + count(packetPushStarted) - count(packetPulled) - count(packetRemoved) - count(packetDropped)))"
attr title "queue length, last"
attr unit pk
scalar NetworkSlicing.gnb.pppIf.queue queueLength:max 5
attr autoWarmupFilter false
attr interpolationmode sample-hold
attr recordingmode max
attr source "warmup(atomic(constant0(packetPushEnded) + count(packetPushStarted) - count(packetPulled) - count(packetRemoved) - count(packetDropped)))"
attr title "queue length, max"
attr unit pk
scalar NetworkSlicing.gnb.pppIf.queue queueLength:timeavg 0.0022953892492891
attr autoWarmupFilter false
attr interpolationmode sample-hold
attr recordingmode timeavg
attr source "warmup(atomic(constant0(packetPushEnded) + count(packetPushStarted) - count(packetPulled) - count(packetRemoved) - count(packetDropped)))"
attr title "queue length, timeavg"
attr unit pk
scalar NetworkSlicing.gnb.pppIf.queue queueBitLength:last 24512
attr autoWarmupFilter false
attr interpolationmode sample-hold
attr recordingmode last
attr source "warmup(atomic(constant0(packetPushEnded) + sum(packetLength(packetPushStarted)) - sum(packetLength(packetPulled)) - sum(packetLength(packetRemoved)) - sum(packetLength(packetDropped))))"
attr title "queue bit length, last"
attr unit b
scalar NetworkSlicing.gnb.pppIf.queue queueBitLength:max 47936
attr autoWarmupFilter false
attr interpolationmode sample-hold
attr recordingmode max
attr source "warmup(atomic(constant0(packetPushEnded) + sum(packetLength(packetPushStarted)) - sum(packetLength(packetPulled)) - sum(packetLength(packetRemoved)) - sum(packetLength(packetDropped))))"
attr title "queue bit length, max"
attr unit b
scalar NetworkSlicing.gnb.pppIf.queue queueBitLength:timeavg 19.856284348493
attr autoWarmupFilter false
attr interpolationmode sample-hold
attr recordingmode timeavg
attr source "warmup(atomic(constant0(packetPushEnded) + sum(packetLength(packetPushStarted)) - sum(packetLength(packetPulled)) - sum(packetLength(packetRemoved)) - sum(packetLength(packetDropped))))"
attr title "queue bit length, timeavg"
attr unit b
statistic NetworkSlicing.gnb.pppIf.queue queueingTime:histogram
field count 3496439
field mean 1.181688182952e-06
field stddev 1.0863022399765e-06
field min 0
field max 5.444e-06
field sum 4.1317006487126
field sqrsum 9.0083624328954e-06
attr interpolationmode none
attr recordingmode histogram
attr source queueingTime(packetPulled)
attr title "queueing times"
attr unit s
bin	-inf	0
bin	0	1241020
bin	1e-07	0
bin	2e-07	38283
bin	3e-07	0
bin	4e-07	0
bin	5e-07	55
bin	6e-07	0
bin	7e-07	0
bin	8e-07	0
bin	9e-07	0
bin	1e-06	981590
bin	1.1e-06	0
bin	1.2e-06	0
bin	1.3e-06	0
bin	1.4e-06	0
bin	1.5e-06	0
bin	1.6e-06	0
bin	1.7e-06	0
bin	1.8e-06	0
bin	1.9e-06	0
bin	2e-06	0
bin	2.1e-06	911023
bin	2.2e-06	0
bin	2.3e-06	0
bin	2.4e-06	4839
bin	2.5e-06	0
bin	2.6e-06	0
bin	2.7e-06	6
bin	2.8e-06	0
bin	2.9e-06	0
bin	3e-06	0
bin	3.1e-06	0
bin	3.2e-06	278464
bin	3.3e-06	0
bin	3.4e-06	0
bin	3.5e-06	41094
bin	3.6e-06	0
bin	3.7e-06	0
bin	3.8e-06	59
bin	3.9e-06	0
bin	4e-06	0
bin	4.1e-06	0
bin	4.2e-06	0
bin	4.3e-06	4
bin	4.4e-06	0
bin	4.5e-06	0
bin	4.6e-06	0
bin	4.7e-06	0
bin	4.8e-06	0
bin	4.9e-06	0
bin	5e-06	0
bin	5.1e-06	0
bin	5.2e-06	0
bin	5.3e-06	0
bin	5.4e-06	2
bin	5.5e-06	0
scalar NetworkSlicing.gnb.pppIf.queue outgoingPackets:count 3496439
attr recordingmode count
attr source packetPulled
attr title "outgoing packets, count"
attr unit pk
scalar NetworkSlicing.gnb.pppIf.queue outgoingPacketLengths:sum 32736860064
attr interpolationmode none
attr recordingmode sum
attr source packetLength(packetPulled)
attr title "outgoing packet lengths, sum"
attr unit b
statistic NetworkSlicing.gnb.pppIf.queue outgoingPacketLengths:histogram
field count 3496439
field mean 9362.9146866283
field stddev 3067.2272852055
field min 888
field max 10832
field sum 32736860064
field sqrsum 3.3940650827418e+14
attr interpolationmode none
attr recordingmode histogram
attr source packetLength(packetPulled)
attr title "outgoing packet lengths"
attr unit b
bin	-inf	0
bin	800	1080
bin	1000	0
bin	1200	0
bin	1400	0
bin	1600	0
bin	1800	0
bin	2000	0
bin	2200	0
bin	2400	0
bin	2600	0
bin	2800	599935
bin	3000	0
bin	3200	0
bin	3400	0
bin	3600	0
bin	3800	0
bin	4000	0
bin	4200	0
bin	4400	0
bin	4600	53976
bin	4800	0
bin	5000	0
bin	5200	0
bin	5400	0
bin	5600	0
bin	5800	0
bin	6000	0
bin	6200	0
bin	6400	0
bin	6600	0
bin	6800	0
bin	7000	0
bin	7200	0
bin	7400	0
bin	7600	0
bin	7800	0
bin	8000	0
bin	8200	0
bin	8400	0
bin	8600	0
bin	8800	0
bin	9000	0
bin	9200	0
bin	9400	0
bin	9600	0
bin	9800	0
bin	10000	0
bin	10200	0
bin	10400	0
bin	10600	0
bin	10800	2841448
bin	11000	0
bin	11200	0
bin	11400	0
bin	11600	0
bin	11800	0
bin	12000	0
bin	12200	0
bin	12400	0
bin	12600	0
bin	12800	0
bin	13000	0
statistic NetworkSlicing.gnb.pppIf.queue flowQueueingTime:histogram
field count 0
field mean -nan
field stddev nan
field min nan
field max nan
field sum 0
field sqrsum 0
attr interpolationmode none
attr recordingmode histogram
attr source queueingTime(demuxFlow(packetPulled))
attr title "flow queueing times"
attr unit s
bin	-inf	0
bin	0	0
bin	1	0
scalar NetworkSlicing.gnb.pppIf.queue incomingPackets:count 3496442
attr recordingmode count
attr source packetPushStarted
attr title "incoming packets, count"
attr unit pk
scalar NetworkSlicing.gnb.pppIf.queue incomingPacketLengths:sum 32736884576
attr interpolationmode none
attr recordingmode sum
attr source packetLength(packetPushStarted)
attr title "incoming packet lengths, sum"
attr unit b
statistic NetworkSlicing.gnb.pppIf.queue incomingPacketLengths:histogram
field count 3496442
field mean 9362.9136636615
field stddev 3067.2281494457
field min 888
field max 10832
field sum 32736884576
field sqrsum 3.3940675104973e+14
attr interpolationmode none
attr recordingmode histogram
attr source packetLength(packetPushStarted)
attr title "incoming packet lengths"
attr unit b
bin	-inf	0
bin	800	1080
bin	1000	0
bin	1200	0
bin	1400	0
bin	1600	0
bin	1800	0
bin	2000	0
bin	2200	0
bin	2400	0
bin	2600	0
bin	2800	599936
bin	3000	0
bin	3200	0
bin	3400	0
bin	3600	0
bin	3800	0
bin	4000	0
bin	4200	0
bin	4400	0
bin	4600	53976
bin	4800	0
bin	5000	0
bin	5200	0
bin	5400	0
bin	5600	0
bin	5800	0
bin	6000	0
bin	6200	0
bin	6400	0
bin	6600	0
bin	6800	0
bin	7000	0
bin	7200	0
bin	7400	0
bin	7600	0
bin	7800	0
bin	8000	0
bin	8200	0
bin	8400	0
bin	8600	0
bin	8800	0
bin	9000	0
bin	9200	0
bin	9400	0
bin	9600	0
bin	9800	0
bin	10000	0
bin	10200	0
bin	10400	0
bin	10600	0
bin	10800	2841450
bin	11000	0
bin	11200	0
bin	11400	0
bin	11600	0
bin	11800	0
bin	12000	0
bin	12200	0
bin	12400	0
bin	12600	0
bin	12800	0
bin	13000	0
scalar NetworkSlicing.gnb.pppIf.queue droppedPacketsQueueOverflow:count 0
attr interpolationmode none
attr recordingmode count
attr source packetDropReasonIsQueueOverflow(packetDropped)
attr title "dropped packets: queue overflow, count"
attr unit pk
scalar NetworkSlicing.gnb.pppIf.queue droppedPacketLengthsQueueOverflow:sum 0
attr interpolationmode none
attr recordingmode sum
attr source packetLength(packetDropReasonIsQueueOverflow(packetDropped))
[...]
scalar NetworkSlicing.ueBestEffort[2].cellularNic packetDropInterfaceDown:sum(packetBytes) 0
attr interpolationmode none
attr recordingmode sum(packetBytes)
attr source packetDropReasonIsInterfaceDown(packetDropped)
attr title "packet drops: interface down, sum(packetBytes)"
scalar NetworkSlicing.ueBestEffort[2].cellularNic packetDropNoCarrier:count 0
attr interpolationmode none
attr recordingmode count
attr source packetDropReasonIsNoCarrier(packetDropped)
attr title "packet drops: no carrier, count"
scalar NetworkSlicing.ueBestEffort[2].cellularNic packetDropNoCarrier:sum(packetBytes) 0
attr interpolationmode none
attr recordingmode sum(packetBytes)
attr source packetDropReasonIsNoCarrier(packetDropped)
attr title "packet drops: no carrier, sum(packetBytes)"
par NetworkSlicing.ueBestEffort[2].encap typename "\"inet.linklayer.ethernet.basic.EthernetEncapsulation\""
par NetworkSlicing.ueBestEffort[2].encap registerProtocol true
par NetworkSlicing.ueBestEffort[2].encap interfaceTableModule "\"NetworkSlicing.ueBestEffort[2].interfaceTable\""
par NetworkSlicing.ueBestEffort[2].encap fcsMode "\"declared\""
attr enum declared,computed
par NetworkSlicing.ueBestEffort[2].encap stopOperationExtraTime -1s
attr unit s
par NetworkSlicing.ueBestEffort[2].encap stopOperationTimeout 2s
attr unit s
scalar NetworkSlicing.ueBestEffort[2].encap pauseSent:count 0
attr recordingmode count
attr title "pause sent, count"
scalar NetworkSlicing.ueBestEffort[2].encap pauseSent:sum 0
attr recordingmode sum
attr title "pause sent, sum"
scalar NetworkSlicing.ueBestEffort[2].encap decapPk:count 0
attr interpolationmode none
attr recordingmode count
attr source decapPk
attr title "packets decapsulated, count"
scalar NetworkSlicing.ueBestEffort[2].encap decapPk:sum(packetBytes) 0
attr interpolationmode none
attr recordingmode sum(packetBytes)
attr source decapPk
attr title "packets decapsulated, sum(packetBytes)"
scalar NetworkSlicing.ueBestEffort[2].encap encapPk:count 0
attr interpolationmode none
attr recordingmode count
attr source encapPk
attr title "packets encapsulated, count"
scalar NetworkSlicing.ueBestEffort[2].encap encapPk:sum(packetBytes) 0
attr interpolationmode none
attr recordingmode sum(packetBytes)
attr source encapPk
attr title "packets encapsulated, sum(packetBytes)"
par NetworkSlicing.ueBestEffort[2].ipv4.transportIn.channel typename "\"ned.IdealChannel\""
par NetworkSlicing.ueBestEffort[2].ipv4.up.out[0].channel typename "\"ned.IdealChannel\""
par NetworkSlicing.ueBestEffort[2].ipv4.lp.out[2].channel typename "\"ned.IdealChannel\""
par NetworkSlicing.ueBestEffort[2].ipv4.ifIn.channel typename "\"ned.IdealChannel\""
par NetworkSlicing.ueBestEffort[2].ipv4.configurator typename "\"inet.networklayer.configurator.ipv4.Ipv4NodeConfigurator\""
par NetworkSlicing.ueBestEffort[2].ipv4.configurator interfaceTableModule "\"NetworkSlicing.ueBestEffort[2].interfaceTable\""
par NetworkSlicing.ueBestEffort[2].ipv4.configurator routingTableModule "\"NetworkSlicing.ueBestEffort[2].ipv4.routingTable\""
par NetworkSlicing.ueBestEffort[2].ipv4.configurator networkConfiguratorModule "\"configurator\""
par NetworkSlicing.ueBestEffort[2].ipv4.configurator configureRoutingTable true
par NetworkSlicing.ueBestEffort[2].ipv4.routingTable typename "\"inet.networklayer.ipv4.Ipv4RoutingTable\""
par NetworkSlicing.ueBestEffort[2].ipv4.routingTable interfaceTableModule "\"NetworkSlicing.ueBestEffort[2].interfaceTable\""
par NetworkSlicing.ueBestEffort[2].ipv4.routingTable routerId "\"auto\""
par NetworkSlicing.ueBestEffort[2].ipv4.routingTable netmaskRoutes "\"*\""
par NetworkSlicing.ueBestEffort[2].ipv4.routingTable forwarding false
par NetworkSlicing.ueBestEffort[2].ipv4.routingTable multicastForwarding false
par NetworkSlicing.ueBestEffort[2].ipv4.routingTable useAdminDist false
par NetworkSlicing.ueBestEffort[2].ipv4.routingTable routingFile "\"\""
par NetworkSlicing.ueBestEffort[2].ipv4.natTable typename "\"inet.networklayer.ipv4.Ipv4NatTable\""
par NetworkSlicing.ueBestEffort[2].ipv4.natTable networkProtocolModule "\"^.ip\""
par NetworkSlicing.ueBestEffort[2].ipv4.natTable config "<config/> at content:1"
par NetworkSlicing.ueBestEffort[2].ipv4.up typename "\"inet.common.MessageDispatcher\""
par NetworkSlicing.ueBestEffort[2].ipv4.up displayStringTextFormat "\"processed %p pk (%l)\""
par NetworkSlicing.ueBestEffort[2].ipv4.up forwardServiceRegistration true
par NetworkSlicing.ueBestEffort[2].ipv4.up forwardProtocolRegistration true
par NetworkSlicing.ueBestEffort[2].ipv4.igmp typename "\"inet.networklayer.ipv4.Igmpv2\""
par NetworkSlicing.ueBestEffort[2].ipv4.igmp interfaceTableModule "\"NetworkSlicing.ueBestEffort[2].interfaceTable\""
par NetworkSlicing.ueBestEffort[2].ipv4.igmp routingTableModule "\"NetworkSlicing.ueBestEffort[2].ipv4.routingTable\""
par NetworkSlicing.ueBestEffort[2].ipv4.igmp crcMode "\"declared\""
attr enum declared,computed
par NetworkSlicing.ueBestEffort[2].ipv4.igmp enabled true
par NetworkSlicing.ueBestEffort[2].ipv4.igmp robustnessVariable 2
par NetworkSlicing.ueBestEffort[2].ipv4.igmp queryInterval 125s
attr unit s
par NetworkSlicing.ueBestEffort[2].ipv4.igmp queryResponseInterval 10s
attr unit s
par NetworkSlicing.ueBestEffort[2].ipv4.igmp groupMembershipInterval 260s
attr unit s
par NetworkSlicing.ueBestEffort[2].ipv4.igmp otherQuerierPresentInterval 255s
attr unit s
par NetworkSlicing.ueBestEffort[2].ipv4.igmp startupQueryInterval 31.25s
attr unit s
par NetworkSlicing.ueBestEffort[2].ipv4.igmp startupQueryCount 2
par NetworkSlicing.ueBestEffort[2].ipv4.igmp lastMemberQueryInterval 1s
attr unit s
par NetworkSlicing.ueBestEffort[2].ipv4.igmp lastMemberQueryCount 2
par NetworkSlicing.ueBestEffort[2].ipv4.igmp unsolicitedReportInterval 10s
attr unit s
par NetworkSlicing.ueBestEffort[2].ipv4.icmp typename "\"inet.networklayer.ipv4.Icmp\""
par NetworkSlicing.ueBestEffort[2].ipv4.icmp interfaceTableModule "\"NetworkSlicing.ueBestEffort[2].interfaceTable\""
par NetworkSlicing.ueBestEffort[2].ipv4.icmp routingTableModule "\"NetworkSlicing.ueBestEffort[2].ipv4.routingTable\""
par NetworkSlicing.ueBestEffort[2].ipv4.icmp crcMode "\"declared\""
attr enum declared,computed
attr mutable ""
par NetworkSlicing.ueBestEffort[2].ipv4.icmp quoteLength 8B
attr mutable ""
attr unit B
par NetworkSlicing.ueBestEffort[2].ipv4.mp typename "\"inet.common.MessageDispatcher\""
par NetworkSlicing.ueBestEffort[2].ipv4.mp displayStringTextFormat "\"processed %p pk (%l)\""
par NetworkSlicing.ueBestEffort[2].ipv4.mp forwardServiceRegistration true
par NetworkSlicing.ueBestEffort[2].ipv4.mp forwardProtocolRegistration true
par NetworkSlicing.ueBestEffort[2].ipv4.ip typename "\"inet.networklayer.ipv4.Ipv4\""
par NetworkSlicing.ueBestEffort[2].ipv4.ip interfaceTableModule "\"NetworkSlicing.ueBestEffort[2].interfaceTable\""
par NetworkSlicing.ueBestEffort[2].ipv4.ip routingTableModule "\"NetworkSlicing.ueBestEffort[2].ipv4.routingTable\""
par NetworkSlicing.ueBestEffort[2].ipv4.ip arpModule "\"NetworkSlicing.ueBestEffort[2].ipv4.arp\""
par NetworkSlicing.ueBestEffort[2].ipv4.ip icmpModule "\"NetworkSlicing.ueBestEffort[2].ipv4.icmp\""
par NetworkSlicing.ueBestEffort[2].ipv4.ip crcMode "\"declared\""
attr enum declared,computed
par NetworkSlicing.ueBestEffort[2].ipv4.ip timeToLive 32
par NetworkSlicing.ueBestEffort[2].ipv4.ip multicastTimeToLive 32
par NetworkSlicing.ueBestEffort[2].ipv4.ip fragmentTimeout 60s
attr unit s
par NetworkSlicing.ueBestEffort[2].ipv4.ip limitedBroadcast false
par NetworkSlicing.ueBestEffort[2].ipv4.ip directBroadcastInterfaces "\"\""
scalar NetworkSlicing.ueBestEffort[2].ipv4.ip packetDropAddressResolutionFailed:count 0
attr interpolationmode none
attr recordingmode count
attr source packetDropReasonIsAddressResolutionFailed(packetDropped)
attr title "packet drop: address resolution failed, count"
scalar NetworkSlicing.ueBestEffort[2].ipv4.ip packetDropAddressResolutionFailed:sum(packetBytes) 0
attr interpolationmode none
attr recordingmode sum(packetBytes)
attr source packetDropReasonIsAddressResolutionFailed(packetDropped)
attr title "packet drop: address resolution failed, sum(packetBytes)"
scalar NetworkSlicing.ueBestEffort[2].ipv4.ip packetDropHopLimitReached:count 0
attr interpolationmode none
attr recordingmode count
attr source packetDropReasonIsHopLimitReached(packetDropped)
attr title "packet drop: hop limit reached, count"
scalar NetworkSlicing.ueBestEffort[2].ipv4.ip packetDropHopLimitReached:sum(packetBytes) 0
attr interpolationmode none
attr recordingmode sum(packetBytes)
attr source packetDropReasonIsHopLimitReached(packetDropped)
attr title "packet drop: hop limit reached, sum(packetBytes)"
scalar NetworkSlicing.ueBestEffort[2].ipv4.ip packetDropForwardingDisabled:count 0
attr interpolationmode none
attr recordingmode count
attr source packetDropReasonIsForwardingDisabled(packetDropped)
attr title "packet drop: forwarding disabled, count"
scalar NetworkSlicing.ueBestEffort[2].ipv4.ip packetDropForwardingDisabled:sum(packetBytes) 0
attr interpolationmode none
attr recordingmode sum(packetBytes)
attr source packetDropReasonIsForwardingDisabled(packetDropped)
attr title "packet drop: forwarding disabled, sum(packetBytes)"
scalar NetworkSlicing.ueBestEffort[2].ipv4.ip packetDropNoInterfaceFound:count 0
attr interpolationmode none
attr recordingmode count
attr source packetDropReasonIsNoInterfaceFound(packetDropped)
attr title "packet drop: no interface found, count"
scalar NetworkSlicing.ueBestEffort[2].ipv4.ip packetDropNoInterfaceFound:sum(packetBytes) 0
attr interpolationmode none
attr recordingmode sum(packetBytes)
attr source packetDropReasonIsNoInterfaceFound(packetDropped)
attr title "packet drop: no interface found, sum(packetBytes)"
scalar NetworkSlicing.ueBestEffort[2].ipv4.ip packetDropNoRouteFound:count 0
attr interpolationmode none
attr recordingmode count
attr source packetDropReasonIsNoRouteFound(packetDropped)
attr title "packet drop: no route found, count"
scalar NetworkSlicing.ueBestEffort[2].ipv4.ip packetDropNoRouteFound:sum(packetBytes) 0
attr interpolationmode none
attr recordingmode sum(packetBytes)
attr source packetDropReasonIsNoRouteFound(packetDropped)
attr title "packet drop: no route found, sum(packetBytes)"
scalar NetworkSlicing.ueBestEffort[2].ipv4.ip packetDropUndefined:count 0
attr interpolationmode none
attr recordingmode count
attr source packetDropReasonIsUndefined(packetDropped)
attr title "packet drop: undefined, count"
scalar NetworkSlicing.ueBestEffort[2].ipv4.ip packetDropUndefined:sum(packetBytes) 0
attr interpolationmode none
attr recordingmode sum(packetBytes)
attr source packetDropReasonIsUndefined(packetDropped)
attr title "packet drop: undefined, sum(packetBytes)"
par NetworkSlicing.ueBestEffort[2].ipv4.arp typename "\"inet.networklayer.arp.ipv4.Arp\""
par NetworkSlicing.ueBestEffort[2].ipv4.arp interfaceTableModule "\"NetworkSlicing.ueBestEffort[2].interfaceTable\""
par NetworkSlicing.ueBestEffort[2].ipv4.arp routingTableModule "\"NetworkSlicing.ueBestEffort[2].ipv4.routingTable\""
par NetworkSlicing.ueBestEffort[2].ipv4.arp retryTimeout 1s
attr unit s
par NetworkSlicing.ueBestEffort[2].ipv4.arp retryCount 3
par NetworkSlicing.ueBestEffort[2].ipv4.arp cacheTimeout 120s
attr unit s
par NetworkSlicing.ueBestEffort[2].ipv4.arp proxyArpInterfaces "\"*\""
scalar NetworkSlicing.ueBestEffort[2].ipv4.arp arpResolutionFailed:count 0
attr recordingmode count
attr title "ARP failed resolutions, count"
scalar NetworkSlicing.ueBestEffort[2].ipv4.arp arpResolutionCompleted:count 0
attr recordingmode count
attr title "ARP completed resolutions, count"
scalar NetworkSlicing.ueBestEffort[2].ipv4.arp arpResolutionInitiated:count 0
attr recordingmode count
attr title "ARP initiated resolutions, count"
scalar NetworkSlicing.ueBestEffort[2].ipv4.arp arpReplySent:count 0
attr recordingmode count
attr source arpReplySent
attr title "ARP replies sent, count"
scalar NetworkSlicing.ueBestEffort[2].ipv4.arp arpReplySent:sum(packetBytes) 0
attr recordingmode sum(packetBytes)
attr source arpReplySent
attr title "ARP replies sent, sum(packetBytes)"
scalar NetworkSlicing.ueBestEffort[2].ipv4.arp arpRequestSent:count 0
attr recordingmode count
attr source arpRequestSent
attr title "ARP request sent, count"
scalar NetworkSlicing.ueBestEffort[2].ipv4.arp arpRequestSent:sum(packetBytes) 0
attr recordingmode sum(packetBytes)
attr source arpRequestSent
attr title "ARP request sent, sum(packetBytes)"
par NetworkSlicing.ueBestEffort[2].ipv4.lp typename "\"inet.common.MessageDispatcher\""
par NetworkSlicing.ueBestEffort[2].ipv4.lp displayStringTextFormat "\"processed %p pk (%l)\""
par NetworkSlicing.ueBestEffort[2].ipv4.lp forwardServiceRegistration true
par NetworkSlicing.ueBestEffort[2].ipv4.lp forwardProtocolRegistration true
par NetworkSlicing.ueBestEffort[2].ipv4 typename "\"inet.networklayer.ipv4.Ipv4NetworkLayer\""
par NetworkSlicing.ueBestEffort[2].ipv4 forwarding false
par NetworkSlicing.ueBestEffort[2].ipv4 multicastForwarding false
par NetworkSlicing.ueBestEffort[2].ipv4 interfaceTableModule "\"NetworkSlicing.ueBestEffort[2].interfaceTable\""
par NetworkSlicing.ueBestEffort[2].ipv4 displayStringTextFormat "\"%i\""
par NetworkSlicing.ueBestEffort[2].udp typename "\"inet.transportlayer.udp.Udp\""
par NetworkSlicing.ueBestEffort[2].udp interfaceTableModule "\"NetworkSlicing.ueBestEffort[2].interfaceTable\""
par NetworkSlicing.ueBestEffort[2].udp icmpModule "\"^.ipv4.icmp\""
par NetworkSlicing.ueBestEffort[2].udp icmpv6Module "\"^.ipv6.icmpv6\""
par NetworkSlicing.ueBestEffort[2].udp crcMode "\"declared\""
attr enum disabled,declared,computed
par NetworkSlicing.ueBestEffort[2].udp defaultMulticastLoop true
scalar NetworkSlicing.ueBestEffort[2].udp packetReceived:count 0
attr interpolationmode none
attr recordingmode count
attr source packetReceived
attr title "packets received, count"
scalar NetworkSlicing.ueBestEffort[2].udp packetReceived:sum(packetBytes) 0
attr interpolationmode none
attr recordingmode sum(packetBytes)
attr source packetReceived
attr title "packets received, sum(packetBytes)"
scalar NetworkSlicing.ueBestEffort[2].udp packetSent:count 17996
attr interpolationmode none
attr recordingmode count
attr source packetSent
attr title "packets sent, count"
scalar NetworkSlicing.ueBestEffort[2].udp packetSent:sum(packetBytes) 9357920
attr interpolationmode none
attr recordingmode sum(packetBytes)
attr source packetSent
attr title "packets sent, sum(packetBytes)"
scalar NetworkSlicing.ueBestEffort[2].udp passedUpPk:count 0
attr interpolationmode none
attr recordingmode count
attr source packetSentToUpper
attr title "packets passed up, count"
scalar NetworkSlicing.ueBestEffort[2].udp droppedPkWrongPort:count 0
attr interpolationmode none
attr recordingmode count
attr source packetDropReasonIsNoPortFound(packetDropped)
attr title "packets dropped (wrong port), count"
scalar NetworkSlicing.ueBestEffort[2].udp droppedPkBadChecksum:count 0
attr interpolationmode none
attr recordingmode count
attr source packetDropReasonIsIncorrectlyReceived(packetDropped)
attr title "packets dropped (checksum error), count"
par NetworkSlicing.ueBestEffort[2].tcp typename "\"inet.transportlayer.tcp.Tcp\""
par NetworkSlicing.ueBestEffort[2].tcp crcMode "\"declared\""
attr enum declared,computed
par NetworkSlicing.ueBestEffort[2].tcp advertisedWindow 7504
par NetworkSlicing.ueBestEffort[2].tcp delayedAcksEnabled false
par NetworkSlicing.ueBestEffort[2].tcp nagleEnabled true
par NetworkSlicing.ueBestEffort[2].tcp limitedTransmitEnabled false
par NetworkSlicing.ueBestEffort[2].tcp increasedIWEnabled false
par NetworkSlicing.ueBestEffort[2].tcp sackSupport false
par NetworkSlicing.ueBestEffort[2].tcp windowScalingSupport false
par NetworkSlicing.ueBestEffort[2].tcp windowScalingFactor -1
par NetworkSlicing.ueBestEffort[2].tcp timestampSupport false
par NetworkSlicing.ueBestEffort[2].tcp mss 536
par NetworkSlicing.ueBestEffort[2].tcp msl 120s
attr unit s
par NetworkSlicing.ueBestEffort[2].tcp tcpAlgorithmClass "\"TcpReno\""
par NetworkSlicing.ueBestEffort[2].tcp useDataNotification false
par NetworkSlicing.ueBestEffort[2].tcp dupthresh 3
par NetworkSlicing.ueBestEffort[2].tcp initialSsthresh 4294967295
par NetworkSlicing.ueBestEffort[2].tcp stopOperationExtraTime 0s
attr unit s
par NetworkSlicing.ueBestEffort[2].tcp stopOperationTimeout 2s
attr unit s
par NetworkSlicing.ueBestEffort[2].tcp ecnWillingness false
par NetworkSlicing.ueBestEffort[2].tcp dctcpGamma 0.0625
par NetworkSlicing.ueBestEffort[2].app[0] typename "\"simu5g.apps.cbr.CbrSender\""
par NetworkSlicing.ueBestEffort[2].app[0] localPort -1
par NetworkSlicing.ueBestEffort[2].app[0] destPort 5000
par NetworkSlicing.ueBestEffort[2].app[0] destAddress "\"serverBestEffort\""
par NetworkSlicing.ueBestEffort[2].app[0] packetSize 512B
attr unit B
par NetworkSlicing.ueBestEffort[2].app[0] samplingTime 0.1s
attr unit s
par NetworkSlicing.ueBestEffort[2].app[0] startTime 0.477478s
attr unit s
par NetworkSlicing.ueBestEffort[2].app[0] finishTime 0s
attr unit s
par NetworkSlicing.ueBestEffort[2].app[0] tos -1
scalar NetworkSlicing.ueBestEffort[2].app[0] cbrGeneratedBytes:mean 512
attr recordingmode mean
attr source cbrGeneratedBytes
attr title "Bytes generated by the application, mean"
attr unit Bps
scalar NetworkSlicing.ueBestEffort[2].app[0] cbrGeneratedBytes:last(sumPerDuration) 5118.926272282
attr recordingmode last(sumPerDuration)
attr source cbrGeneratedBytes
attr title "Bytes generated by the application, last(sumPerDuration)"
attr unit Bps
scalar NetworkSlicing.ueBestEffort[2].app[0] cbrGeneratedThroughput:simu5g_rateavg 5118.8622222222
attr recordingmode simu5g_rateavg
attr source cbrGeneratedThroughput
attr title "Throughput generated by the application, simu5g_rateavg"
attr unit Bps
par NetworkSlicing.ueBestEffort[2].at typename "\"inet.common.MessageDispatcher\""
par NetworkSlicing.ueBestEffort[2].at displayStringTextFormat "\"processed %p pk (%l)\""
par NetworkSlicing.ueBestEffort[2].at forwardServiceRegistration true
par NetworkSlicing.ueBestEffort[2].at forwardProtocolRegistration true
par NetworkSlicing.ueBestEffort[2].tn typename "\"inet.common.MessageDispatcher\""
par NetworkSlicing.ueBestEffort[2].tn displayStringTextFormat "\"processed %p pk (%l)\""
par NetworkSlicing.ueBestEffort[2].tn forwardServiceRegistration true
par NetworkSlicing.ueBestEffort[2].tn forwardProtocolRegistration true
par NetworkSlicing.ueBestEffort[2].nl typename "\"inet.common.MessageDispatcher\""
par NetworkSlicing.ueBestEffort[2].nl displayStringTextFormat "\"processed %p pk (%l)\""
par NetworkSlicing.ueBestEffort[2].nl forwardServiceRegistration true
par NetworkSlicing.ueBestEffort[2].nl forwardProtocolRegistration true
par NetworkSlicing.ueBestEffort[2] typename "\"simu5g.nodes.NrUe\""
par NetworkSlicing.ueBestEffort[2] numApps 1
par NetworkSlicing.ueBestEffort[2] hasUdp true
par NetworkSlicing.ueBestEffort[2] hasTcp true
par NetworkSlicing.ueBestEffort[2] hasSctp false
par NetworkSlicing.ueBestEffort[2] nodeType "\"UE\""
par NetworkSlicing.ueBestEffort[2] masterId 0
attr mutable ""
par NetworkSlicing.ueBestEffort[2] macNodeId 1046
attr mutable ""
par NetworkSlicing.ueBestEffort[2] macCellId 0
attr mutable ""
par NetworkSlicing.ueBestEffort[2] hasIpv4 true
par NetworkSlicing.ueBestEffort[2] hasIpv6 false
par NetworkSlicing.ueBestEffort[2] numEthInterfaces 0
par NetworkSlicing.ueBestEffort[2] extHostAddress "\"\""
par NetworkSlicing.ueBestEffort[2] numLoInterfaces 1
par NetworkSlicing.ueBestEffort[2] numPcapRecorders 0
par NetworkSlicing.ueBestEffort[2] hasRniSupport false
par NetworkSlicing.ueBestEffort[2] nrMasterId 1
attr mutable ""
par NetworkSlicing.ueBestEffort[2] nrMacNodeId 2070
attr mutable ""
par NetworkSlicing.ueBestEffort[2] nrMacCellId 1
attr mutable ""
par NetworkSlicing typename "\"NetworkSlicing\""
par NetworkSlicing numEmbbUes 6
par NetworkSlicing numUrllcUes 10
par NetworkSlicing numMmtcUes 3
par NetworkSlicing numBestEffortUes 3

