file 620044454 1770655006                                       
version 3
run OverloadAll-0-20260209-17:13:23-134
attr configname OverloadAll
attr datetime 20260209-17:13:23
attr datetimef 20260209-171323
attr experiment OverloadAll
attr inifile omnetpp.ini
attr iterationvars ""
attr iterationvarsd ""
attr iterationvarsf ""
attr measurement ""
attr network NetworkSlicing
attr processid 134
attr repetition 0
attr replication #0
attr resultdir results
attr runnumber 0
attr seedset 0
config *.numEmbbUes 10
config *.numUrllcUes 10
config *.numMmtcUes 6
config *.numBestEffortUes 6
config sim-time-limit 1800s
config *.ueEmbb[*].app[0].packetSize 1290B
config *.ueEmbb[*].app[0].samplingTime 0.0038s
config *.ueUrllc[*].app[0].packetSize 292B
config *.ueUrllc[*].app[0].samplingTime 0.030s
config *.ueMmtc[*].app[0].packetSize 47B
config *.ueMmtc[*].app[0].samplingTime 5s
config network NetworkSlicing
config sim-time-limit 300s
config seed-set 0
config *.configurator.config "xml(\"<config><interface among='gnb iUpf upf router' address='10.x.x.x' netmask='255.255.255.0'/><interface hosts='*' address='192.168.x.x' netmask='255.255.255.0'/></config>\")"
config output-vector-file results/OverloadAll-0.vec
config output-scalar-file results/OverloadAll-0.sca
config **.mac.receivedPacketFromLowerLayer.result-recording-modes -
config **.mac.receivedPacketFromUpperLayer.result-recording-modes -
config **.mac.sentPacketToLowerLayer.result-recording-modes -
config **.mac.sentPacketToUpperLayer.result-recording-modes -
config **.app[*].**.vector-recording true
config **.app[*].**.scalar-recording true
config **.vector-recording false
config **.scalar-recording true
config **.cbrFrameDelay.vector-recording true
config **.cbrJitter.vector-recording true
config **.cbrFrameLoss.vector-recording true
config **.cbrRcvdPkt.vector-recording true
config **.cbrSentPkt.vector-recording true
config **.cbrGeneratedThroughput.vector-recording true
config **.cbrFrameDelay.result-recording-modes +vector
config **.cbrJitter.result-recording-modes +vector
config **.numBands 50
config **.ueTxPower 26dBm
config **.eNodeBTxPower 40dBm
config **.targetBler 0.01
config **.blerShift 5
config *.gnb.cellularNic.phy.carrierFrequency 3.5GHz
config *.gnb.cellularNic.mac.schedulingDisciplineDl "\"MAXCI\""
config *.gnb.cellularNic.mac.schedulingDisciplineUl "\"MAXCI\""
config **.mobility.constraintAreaMaxX 1000m
config **.mobility.constraintAreaMaxY 1000m
config **.mobility.constraintAreaMinX 0m
config **.mobility.constraintAreaMinY 0m
config **.mobility.constraintAreaMinZ 0m
config **.mobility.constraintAreaMaxZ 0m
config **.mobility.initFromDisplayString false
config *.gnb.mobility.initialX 500m
config *.gnb.mobility.initialY 500m
config *.ueEmbb[*].mobility.initialX "uniform(400m, 600m)"
config *.ueEmbb[*].mobility.initialY "uniform(400m, 600m)"
config *.ueUrllc[*].mobility.initialX "uniform(450m, 550m)"
config *.ueUrllc[*].mobility.initialY "uniform(450m, 550m)"
config *.ueMmtc[*].mobility.initialX "uniform(350m, 650m)"
config *.ueMmtc[*].mobility.initialY "uniform(350m, 650m)"
config *.ueBestEffort[*].mobility.initialX "uniform(400m, 600m)"
config *.ueBestEffort[*].mobility.initialY "uniform(400m, 600m)"
config *.gnb.cellularNic.mac.qosHandler.slicing true
config *.ueEmbb[*].macCellId 0
config *.ueEmbb[*].masterId 0
config *.ueEmbb[*].nrMacCellId 1
config *.ueEmbb[*].nrMasterId 1
config *.ueUrllc[*].macCellId 0
config *.ueUrllc[*].masterId 0
config *.ueUrllc[*].nrMacCellId 1
config *.ueUrllc[*].nrMasterId 1
config *.ueMmtc[*].macCellId 0
config *.ueMmtc[*].masterId 0
config *.ueMmtc[*].nrMacCellId 1
config *.ueMmtc[*].nrMasterId 1
config *.ueBestEffort[*].macCellId 0
config *.ueBestEffort[*].masterId 0
config *.ueBestEffort[*].nrMacCellId 1
config *.ueBestEffort[*].nrMasterId 1
config *.gnb.cellularNic.mac.sliceConfig "xmldoc(\"sliceConfig.xml\")"
config *.ueEmbb[*].numApps 1
config *.ueEmbb[*].app[0].typename simu5g.apps.cbr.CbrSender
config *.ueEmbb[*].app[0].destAddress "\"serverEmbb\""
config *.ueEmbb[*].app[0].destPort 49005
config *.ueEmbb[*].app[0].packetSize 1400B
config *.ueEmbb[*].app[0].samplingTime 0.001s
config *.ueEmbb[*].app[0].startTime "uniform(0s, 1s)"
config *.ueEmbb[*].app[0].finishTime 0s
config *.serverEmbb.numApps 1
config *.serverEmbb.app[0].typename simu5g.apps.cbr.CbrReceiver
config *.serverEmbb.app[0].localPort 49005
config *.ueUrllc[*].numApps 1
config *.ueUrllc[*].app[0].typename simu5g.apps.cbr.CbrSender
config *.ueUrllc[*].app[0].destAddress "\"serverUrllc\""
config *.ueUrllc[*].app[0].destPort 49003
config *.ueUrllc[*].app[0].packetSize 200B
config *.ueUrllc[*].app[0].samplingTime 0.005s
config *.ueUrllc[*].app[0].startTime "uniform(0s, 0.5s)"
config *.ueUrllc[*].app[0].finishTime 0s
config *.serverUrllc.numApps 1
config *.serverUrllc.app[0].typename simu5g.apps.cbr.CbrReceiver
config *.serverUrllc.app[0].localPort 49003
config *.ueMmtc[*].numApps 1
config *.ueMmtc[*].app[0].typename simu5g.apps.cbr.CbrSender
config *.ueMmtc[*].app[0].destAddress "\"serverMmtc\""
config *.ueMmtc[*].app[0].destPort 8443
config *.ueMmtc[*].app[0].packetSize 100B
config *.ueMmtc[*].app[0].samplingTime 1s
config *.ueMmtc[*].app[0].startTime "uniform(0s, 5s)"
config *.ueMmtc[*].app[0].finishTime 0s
config *.serverMmtc.numApps 1
config *.serverMmtc.app[0].typename simu5g.apps.cbr.CbrReceiver
config *.serverMmtc.app[0].localPort 8443
config *.ueBestEffort[*].numApps 1
config *.ueBestEffort[*].app[0].typename simu5g.apps.cbr.CbrSender
config *.ueBestEffort[*].app[0].destAddress "\"serverBestEffort\""
config *.ueBestEffort[*].app[0].destPort 5000
config *.ueBestEffort[*].app[0].packetSize 512B
config *.ueBestEffort[*].app[0].samplingTime 0.1s
config *.ueBestEffort[*].app[0].startTime "uniform(0s, 2s)"
config *.ueBestEffort[*].app[0].finishTime 0s
config *.serverBestEffort.numApps 1
config *.serverBestEffort.app[0].typename simu5g.apps.cbr.CbrReceiver
config *.serverBestEffort.app[0].localPort 5000

vector 0 NetworkSlicing.gnb.cellularNic.pdcp receivedPacketFromUpperLayer:vector(packetBytes) ETV
attr interpolationmode none
attr recordingmode vector(packetBytes)
attr source receivedPacketFromUpperLayer
vector 1 NetworkSlicing.gnb.cellularNic.pdcp receivedPacketFromLowerLayer:vector(packetBytes) ETV
attr interpolationmode none
attr recordingmode vector(packetBytes)
attr source receivedPacketFromLowerLayer
vector 2 NetworkSlicing.gnb.cellularNic.pdcp sentPacketToUpperLayer:vector(packetBytes) ETV
attr interpolationmode none
attr recordingmode vector(packetBytes)
attr source sentPacketToUpperLayer
vector 3 NetworkSlicing.gnb.cellularNic.pdcp sentPacketToLowerLayer:vector(packetBytes) ETV
attr interpolationmode none
attr recordingmode vector(packetBytes)
attr source sentPacketToLowerLayer
vector 4 NetworkSlicing.gnb.cellularNic.rlc.tm rlcPacketLossUl:vector ETV
attr recordingmode vector
attr source rlcPacketLossUl
attr title "rlc Packet Loss"
attr unit ""
vector 5 NetworkSlicing.gnb.cellularNic.rlc.tm rlcPacketLossDl:vector ETV
attr recordingmode vector
attr source rlcPacketLossDl
attr title "rlc Packet Loss"
attr unit ""
vector 6 NetworkSlicing.gnb.cellularNic.rlc.tm receivedPacketFromUpperLayer:vector(packetBytes) ETV
attr interpolationmode none
attr recordingmode vector(packetBytes)
attr source receivedPacketFromUpperLayer
vector 7 NetworkSlicing.gnb.cellularNic.rlc.tm receivedPacketFromLowerLayer:vector(packetBytes) ETV
attr interpolationmode none
attr recordingmode vector(packetBytes)
attr source receivedPacketFromLowerLayer
vector 8 NetworkSlicing.gnb.cellularNic.rlc.tm sentPacketToUpperLayer:vector(packetBytes) ETV
attr interpolationmode none
attr recordingmode vector(packetBytes)
attr source sentPacketToUpperLayer
vector 9 NetworkSlicing.gnb.cellularNic.rlc.tm sentPacketToLowerLayer:vector(packetBytes) ETV
attr interpolationmode none
attr recordingmode vector(packetBytes)
attr source sentPacketToLowerLayer
vector 10 NetworkSlicing.gnb.cellularNic.rlc.um rlcDelayDl:vector ETV
attr recordingmode vector
attr source rlcDelayDl
attr title "Delay at the rlc layer DL"
attr unit s
vector 11 NetworkSlicing.gnb.cellularNic.rlc.um rlcThroughputDl:vector ETV
attr recordingmode vector
attr source rlcThroughputDl
attr title "Throughput at the rlc layer DL"
attr unit Bps
vector 12 NetworkSlicing.gnb.cellularNic.rlc.um rlcDelayUl:vector ETV
attr recordingmode vector
attr source rlcDelayUl
attr title "Delay at the rlc layer UL"
attr unit s
vector 13 NetworkSlicing.gnb.cellularNic.rlc.um rlcThroughputUl:vector ETV
attr recordingmode vector
attr source rlcThroughputUl
attr title "Throughput at the rlc layer UL"
attr unit Bps
vector 14 NetworkSlicing.gnb.cellularNic.rlc.um rlcPduDelayDl:vector ETV
attr recordingmode vector
attr source rlcPduDelayDl
attr title "Delay at the rlc layer UL"
attr unit s
vector 15 NetworkSlicing.gnb.cellularNic.rlc.um rlcPduThroughputDl:vector ETV
attr recordingmode vector
attr source rlcPduThroughputDl
attr title "Throughput at the rlc layer DL"
attr unit Bps
vector 16 NetworkSlicing.gnb.cellularNic.rlc.um rlcPduDelayUl:vector ETV
attr recordingmode vector
attr source rlcPduDelayUl
attr title "Delay at the rlc layer UL"
attr unit s
vector 17 NetworkSlicing.gnb.cellularNic.rlc.um rlcPduThroughputUl:vector ETV
attr recordingmode vector
attr source rlcPduThroughputUl
attr title "Throughput at the rlc layer UL"
attr unit Bps
vector 18 NetworkSlicing.gnb.cellularNic.rlc.um receivedPacketFromUpperLayer:vector(packetBytes) ETV
attr interpolationmode none
attr recordingmode vector(packetBytes)
attr source receivedPacketFromUpperLayer
vector 19 NetworkSlicing.gnb.cellularNic.rlc.um receivedPacketFromLowerLayer:vector(packetBytes) ETV
attr interpolationmode none
attr recordingmode vector(packetBytes)
attr source receivedPacketFromLowerLayer
vector 20 NetworkSlicing.gnb.cellularNic.rlc.um sentPacketToUpperLayer:vector(packetBytes) ETV
attr interpolationmode none
attr recordingmode vector(packetBytes)
attr source sentPacketToUpperLayer
vector 21 NetworkSlicing.gnb.cellularNic.rlc.um sentPacketToLowerLayer:vector(packetBytes) ETV
attr interpolationmode none
attr recordingmode vector(packetBytes)
attr source sentPacketToLowerLayer
vector 22 NetworkSlicing.gnb.cellularNic.rlc.um rlcDelayD2D:vector ETV
attr recordingmode vector
attr source rlcDelayD2D
attr title "Delay at the rlc layer D2D"
attr unit s
vector 23 NetworkSlicing.gnb.cellularNic.rlc.um rlcThroughputD2D:vector ETV
attr recordingmode vector
attr source rlcThroughputD2D
attr title "Throughput at the rlc layer D2D"
attr unit Bps
vector 24 NetworkSlicing.gnb.cellularNic.rlc.um rlcCellThroughputD2D:vector ETV
attr recordingmode vector
attr source rlcCellThroughputD2D
attr title "Cell Throughput at the rlc layer D2D"
attr unit Bps
vector 25 NetworkSlicing.gnb.cellularNic.rlc.um rlcPduDelayD2D:vector ETV
attr recordingmode vector
attr source rlcPduDelayD2D
attr title "Delay at the rlc layer D2D"
attr unit s
vector 26 NetworkSlicing.gnb.cellularNic.rlc.um rlcPduThroughputD2D:vector ETV
attr recordingmode vector
attr source rlcPduThroughputD2D
attr title "Throughput at the rlc layer D2D"
attr unit Bps
vector 27 NetworkSlicing.gnb.cellularNic.mac macDelayDl:vector ETV
attr recordingmode vector
attr source macDelayDl
attr title "Delay at the MAC layer UL"
attr unit s
vector 28 NetworkSlicing.gnb.cellularNic.mac macDelayUl:vector ETV
attr recordingmode vector
attr source macDelayUl
attr title "Delay at the MAC layer UL"
attr unit s
vector 29 NetworkSlicing.gnb.cellularNic.mac harqErrorRateUl:vector ETV
attr recordingmode vector
attr source harqErrorRateUl
attr title "Harq Error Rate Ul"
attr unit ""
vector 30 NetworkSlicing.gnb.cellularNic.mac harqErrorRateDl:vector ETV
attr recordingmode vector
attr source harqErrorRateDl
attr title "Harq Error Rate Dl"
attr unit ""
vector 31 NetworkSlicing.gnb.cellularNic.mac harqTxAttemptsDl:vector ETV
attr recordingmode vector
attr source harqTxAttemptsDl
attr title "Harq Tx Attempts Dl"
attr unit ""
vector 32 NetworkSlicing.gnb.cellularNic.mac harqTxAttemptsUl:vector ETV
attr recordingmode vector
attr source harqTxAttemptsUl
attr title "Harq Tx Attempts Ul"
attr unit ""
vector 33 NetworkSlicing.gnb.cellularNic.mac harqErrorRate_1st_Ul:vector ETV
attr recordingmode vector
attr source harqErrorRate_1st_Ul
attr title "Harq Error Rate Ul (1st tx)"
attr unit ""
vector 34 NetworkSlicing.gnb.cellularNic.mac harqErrorRate_1st_Dl:vector ETV
attr recordingmode vector
attr source harqErrorRate_1st_Dl
attr title "Harq Error Rate Dl (1st tx)"
attr unit ""
vector 35 NetworkSlicing.gnb.cellularNic.mac harqErrorRate_2nd_Ul:vector ETV
attr recordingmode vector
attr source harqErrorRate_2nd_Ul
attr title "Harq Error Rate Ul (2nd tx)"
attr unit ""
vector 36 NetworkSlicing.gnb.cellularNic.mac harqErrorRate_2nd_Dl:vector ETV
attr recordingmode vector
attr source harqErrorRate_2nd_Dl
attr title "Harq Error Rate Dl (2nd tx)"
attr unit ""
vector 37 NetworkSlicing.gnb.cellularNic.mac harqErrorRate_3rd_Ul:vector ETV
attr recordingmode vector
attr source harqErrorRate_3rd_Ul
attr title "Harq Error Rate Ul (3rd tx)"
attr unit ""
vector 38 NetworkSlicing.gnb.cellularNic.mac harqErrorRate_3rd_Dl:vector ETV
attr recordingmode vector
attr source harqErrorRate_3rd_Dl
attr title "Harq Error Rate Dl (3rd tx)"
attr unit ""
vector 39 NetworkSlicing.gnb.cellularNic.mac harqErrorRate_4th_Ul:vector ETV
attr recordingmode vector
attr source harqErrorRate_4th_Ul
attr title "Harq Error Rate Ul (4th tx)"
attr unit ""
vector 40 NetworkSlicing.gnb.cellularNic.mac harqErrorRate_4th_Dl:vector ETV
attr recordingmode vector
attr source harqErrorRate_4th_Dl
attr title "Harq Error Rate Dl (4th tx)"
attr unit ""
vector 41 NetworkSlicing.gnb.cellularNic.mac avgServedBlocksDl:vector ETV
attr recordingmode vector
attr source avgServedBlocksDl
attr title "Average number of allocated Resource Blocks in the Dl"
attr unit blocks
vector 42 NetworkSlicing.gnb.cellularNic.mac avgServedBlocksUl:vector ETV
attr recordingmode vector
attr source avgServedBlocksUl
attr title "Average number of allocated Resource Blocks in the Dl"
attr unit blocks
vector 43 NetworkSlicing.gnb.cellularNic.channelModel[0] rcvdSinrDl:vector ETV
attr recordingmode vector
attr source rcvdSinrDl
attr title "SINR measured at packet reception, DL"
attr unit dB
vector 44 NetworkSlicing.gnb.cellularNic.channelModel[0] rcvdSinrUl:vector ETV
attr recordingmode vector
attr source rcvdSinrUl
attr title "SINR measured at packet reception, UL"
attr unit dB
vector 45 NetworkSlicing.gnb.cellularNic.channelModel[0] rcvdSinrD2D:vector ETV
attr recordingmode vector
attr source rcvdSinrD2D
attr title "SINR measured at packet reception, D2D"
attr unit dB
vector 46 NetworkSlicing.gnb.cellularNic.channelModel[0] measuredSinrDl:vector ETV
attr recordingmode vector
attr source measuredSinrDl
attr title "SINR measured at feedback computation, DL"
attr unit dB
vector 47 NetworkSlicing.gnb.cellularNic.channelModel[0] measuredSinrUl:vector ETV
attr recordingmode vector
attr source measuredSinrUl
attr title "SINR measured at feedback computation, UL"
attr unit dB
vector 48 NetworkSlicing.gnb.cellularNic packetDropInterfaceDown:vector(packetBytes) ETV
attr interpolationmode none
attr recordingmode vector(packetBytes)
attr source packetDropReasonIsInterfaceDown(packetDropped)
attr title "packet drops: interface down, packetBytes"
vector 49 NetworkSlicing.gnb.cellularNic packetDropNoCarrier:vector(packetBytes) ETV
attr interpolationmode none
attr recordingmode vector(packetBytes)
attr source packetDropReasonIsNoCarrier(packetDropped)
attr title "packet drops: no carrier, packetBytes"
vector 50 NetworkSlicing.gnb.pppIf.queue queueLength:vector ETV
attr autoWarmupFilter false
attr interpolationmode sample-hold
attr recordingmode vector
attr source "warmup(atomic(constant0(packetPushEnded) + count(packetPushStarted) - count(packetPulled) - count(packetRemoved) - count(packetDropped)))"
attr title "queue length"
attr unit pk
vector 51 NetworkSlicing.gnb.pppIf.queue queueBitLength:vector ETV
attr autoWarmupFilter false
attr interpolationmode sample-hold
attr recordingmode vector
attr source "warmup(atomic(constant0(packetPushEnded) + sum(packetLength(packetPushStarted)) - sum(packetLength(packetPulled)) - sum(packetLength(packetRemoved)) - sum(packetLength(packetDropped))))"
attr title "queue bit length"
attr unit b
vector 52 NetworkSlicing.gnb.pppIf.queue queueingTime:vector ETV
attr interpolationmode none
attr recordingmode vector
attr source queueingTime(packetPulled)
attr title "queueing times"
attr unit s
vector 53 NetworkSlicing.gnb.pppIf.queue incomingPacketLengths:vector ETV
attr interpolationmode none
attr recordingmode vector
attr source packetLength(packetPushStarted)
attr title "incoming packet lengths"
attr unit b
vector 54 NetworkSlicing.gnb.pppIf.queue incomingDataRate:vector ETV
attr interpolationmode linear
attr recordingmode vector
attr source throughput(packetPushStarted)
attr title "incoming datarate"
attr unit bps
vector 55 NetworkSlicing.gnb.pppIf.queue outgoingPacketLengths:vector ETV
attr interpolationmode none
attr recordingmode vector
attr source packetLength(packetPulled)
attr title "outgoing packet lengths"
attr unit b
vector 56 NetworkSlicing.gnb.pppIf.queue outgoingDataRate:vector ETV
attr interpolationmode linear
attr recordingmode vector
attr source throughput(packetPulled)
attr title "outgoing datarate"
attr unit bps
vector 57 NetworkSlicing.gnb.pppIf.queue droppedPacketLengthsQueueOverflow:vector ETV
attr interpolationmode none
attr recordingmode vector
attr source packetLength(packetDropReasonIsQueueOverflow(packetDropped))
attr title "dropped packet lengths: queue overflow"
attr unit b
vector 58 NetworkSlicing.gnb.pppIf.queue flowQueueingTime:vector ETV
attr interpolationmode none
attr recordingmode vector
attr source queueingTime(demuxFlow(packetPulled))
attr title "flow queueing times"
attr unit s
vector 59 NetworkSlicing.gnb.pppIf.queue flowIncomingDataRate:vector ETV
attr interpolationmode linear
attr recordingmode vector
attr source throughput(flowPacketLength(demuxFlow(packetPushStarted)))
attr title "flow specific incoming data rate"
attr unit bps
vector 60 NetworkSlicing.gnb.pppIf.queue flowOutgoingDataRate:vector ETV
attr interpolationmode linear
attr recordingmode vector
attr source throughput(flowPacketLength(demuxFlow(packetPulled)))
attr title "flow specific outgoing data rate"
attr unit bps
vector 61 NetworkSlicing.gnb.pppIf.ppp transmissionState:vector ETV
attr interpolationmode sample-hold
attr recordingmode vector
attr source transmissionStateChanged
attr title "tx state"
vector 62 NetworkSlicing.gnb.pppIf.ppp txPk:vector(packetBytes) ETV
attr interpolationmode none
attr recordingmode vector(packetBytes)
attr source packetSentToLower
attr title "packets transmitted, packetBytes"
vector 63 NetworkSlicing.gnb.pppIf.ppp rxPkOk:vector(packetBytes) ETV
attr interpolationmode none
attr recordingmode vector(packetBytes)
attr source rxPkOk
attr title "packets received OK, packetBytes"
vector 64 NetworkSlicing.gnb.pppIf.ppp packetDropIncorrectlyReceived:vector(packetBytes) ETV
attr interpolationmode none
attr recordingmode vector(packetBytes)
attr source packetDropReasonIsIncorrectlyReceived(packetDropped)
attr title "packet drop: incorrectly received, packetBytes"
vector 65 NetworkSlicing.gnb.pppIf.ppp packetDropInterfaceDown:vector(packetBytes) ETV
attr interpolationmode none
attr recordingmode vector(packetBytes)
attr source packetDropReasonIsInterfaceDown(packetDropped)
attr title "packet drop: interface down, packetBytes"
vector 66 NetworkSlicing.gnb.pppIf.ppp rcvdPkFromHl:vector(packetBytes) ETV
attr interpolationmode none
attr recordingmode vector(packetBytes)
attr source packetReceivedFromUpper
attr title "packets received from higher layer, packetBytes"
vector 67 NetworkSlicing.gnb.pppIf.ppp passedUpPk:vector(packetBytes) ETV
attr interpolationmode none
attr recordingmode vector(packetBytes)
attr source packetSentToUpper
attr title "packets passed to higher layer, packetBytes"
vector 68 NetworkSlicing.gnb.pppIf packetDropInterfaceDown:vector(packetBytes) ETV
attr interpolationmode none
attr recordingmode vector(packetBytes)
attr source packetDropReasonIsInterfaceDown(packetDropped)
attr title "packet drops: interface down, packetBytes"
vector 69 NetworkSlicing.gnb.pppIf packetDropNoCarrier:vector(packetBytes) ETV
attr interpolationmode none
attr recordingmode vector(packetBytes)
attr source packetDropReasonIsNoCarrier(packetDropped)
attr title "packet drops: no carrier, packetBytes"
vector 70 NetworkSlicing.gnb.pppMEHostIf.queue queueLength:vector ETV
attr autoWarmupFilter false
attr interpolationmode sample-hold
attr recordingmode vector
attr source "warmup(atomic(constant0(packetPushEnded) + count(packetPushStarted) - count(packetPulled) - count(packetRemoved) - count(packetDropped)))"
attr title "queue length"
attr unit pk
vector 71 NetworkSlicing.gnb.pppMEHostIf.queue queueBitLength:vector ETV
attr autoWarmupFilter false
attr interpolationmode sample-hold
attr recordingmode vector
attr source "warmup(atomic(constant0(packetPushEnded) + sum(packetLength(packetPushStarted)) - sum(packetLength(packetPulled)) - sum(packetLength(packetRemoved)) - sum(packetLength(packetDropped))))"
attr title "queue bit length"
attr unit b
vector 72 NetworkSlicing.gnb.pppMEHostIf.queue queueingTime:vector ETV
attr interpolationmode none
attr recordingmode vector
attr source queueingTime(packetPulled)
attr title "queueing times"
attr unit s
vector 73 NetworkSlicing.gnb.pppMEHostIf.queue incomingPacketLengths:vector ETV
attr interpolationmode none
attr recordingmode vector
attr source packetLength(packetPushStarted)
attr title "incoming packet lengths"
attr unit b
vector 74 NetworkSlicing.gnb.pppMEHostIf.queue incomingDataRate:vector ETV
attr interpolationmode linear
attr recordingmode vector
attr source throughput(packetPushStarted)
attr title "incoming datarate"
attr unit bps
vector 75 NetworkSlicing.gnb.pppMEHostIf.queue outgoingPacketLengths:vector ETV
attr interpolationmode none
attr recordingmode vector
attr source packetLength(packetPulled)
attr title "outgoing packet lengths"
attr unit b
vector 76 NetworkSlicing.gnb.pppMEHostIf.queue outgoingDataRate:vector ETV
attr interpolationmode linear
attr recordingmode vector
attr source throughput(packetPulled)
attr title "outgoing datarate"
attr unit bps
vector 77 NetworkSlicing.gnb.pppMEHostIf.queue droppedPacketLengthsQueueOverflow:vector ETV
attr interpolationmode none
attr recordingmode vector
attr source packetLength(packetDropReasonIsQueueOverflow(packetDropped))
attr title "dropped packet lengths: queue overflow"
attr unit b
vector 78 NetworkSlicing.gnb.pppMEHostIf.queue flowQueueingTime:vector ETV
attr interpolationmode none
attr recordingmode vector
attr source queueingTime(demuxFlow(packetPulled))
attr title "flow queueing times"
attr unit s
vector 79 NetworkSlicing.gnb.pppMEHostIf.queue flowIncomingDataRate:vector ETV
attr interpolationmode linear
attr recordingmode vector
attr source throughput(flowPacketLength(demuxFlow(packetPushStarted)))
attr title "flow specific incoming data rate"
attr unit bps
vector 80 NetworkSlicing.gnb.pppMEHostIf.queue flowOutgoingDataRate:vector ETV
attr interpolationmode linear
attr recordingmode vector
attr source throughput(flowPacketLength(demuxFlow(packetPulled)))
attr title "flow specific outgoing data rate"
attr unit bps
vector 81 NetworkSlicing.gnb.pppMEHostIf.ppp transmissionState:vector ETV
attr interpolationmode sample-hold
attr recordingmode vector
attr source transmissionStateChanged
attr title "tx state"
vector 82 NetworkSlicing.gnb.pppMEHostIf.ppp txPk:vector(packetBytes) ETV
attr interpolationmode none
attr recordingmode vector(packetBytes)
attr source packetSentToLower
attr title "packets transmitted, packetBytes"
vector 83 NetworkSlicing.gnb.pppMEHostIf.ppp rxPkOk:vector(packetBytes) ETV
attr interpolationmode none
attr recordingmode vector(packetBytes)
attr source rxPkOk
attr title "packets received OK, packetBytes"
vector 84 NetworkSlicing.gnb.pppMEHostIf.ppp packetDropIncorrectlyReceived:vector(packetBytes) ETV
attr interpolationmode none
attr recordingmode vector(packetBytes)
attr source packetDropReasonIsIncorrectlyReceived(packetDropped)
attr title "packet drop: incorrectly received, packetBytes"
vector 85 NetworkSlicing.gnb.pppMEHostIf.ppp packetDropInterfaceDown:vector(packetBytes) ETV
attr interpolationmode none
attr recordingmode vector(packetBytes)
attr source packetDropReasonIsInterfaceDown(packetDropped)
attr title "packet drop: interface down, packetBytes"
vector 86 NetworkSlicing.gnb.pppMEHostIf.ppp rcvdPkFromHl:vector(packetBytes) ETV
attr interpolationmode none
attr recordingmode vector(packetBytes)
attr source packetReceivedFromUpper
attr title "packets received from higher layer, packetBytes"
vector 87 NetworkSlicing.gnb.pppMEHostIf.ppp passedUpPk:vector(packetBytes) ETV
attr interpolationmode none
attr recordingmode vector(packetBytes)
attr source packetSentToUpper
attr title "packets passed to higher layer, packetBytes"
vector 88 NetworkSlicing.gnb.pppMEHostIf packetDropInterfaceDown:vector(packetBytes) ETV
attr interpolationmode none
attr recordingmode vector(packetBytes)
attr source packetDropReasonIsInterfaceDown(packetDropped)
attr title "packet drops: interface down, packetBytes"
vector 89 NetworkSlicing.gnb.pppMEHostIf packetDropNoCarrier:vector(packetBytes) ETV
attr interpolationmode none
attr recordingmode vector(packetBytes)
attr source packetDropReasonIsNoCarrier(packetDropped)
attr title "packet drops: no carrier, packetBytes"
vector 90 NetworkSlicing.gnb.ipv4.ip packetDropAddressResolutionFailed:vector(packetBytes) ETV
attr interpolationmode none
attr recordingmode vector(packetBytes)
attr source packetDropReasonIsAddressResolutionFailed(packetDropped)
attr title "packet drop: address resolution failed, packetBytes"
vector 91 NetworkSlicing.gnb.ipv4.ip packetDropHopLimitReached:vector(packetBytes) ETV
attr interpolationmode none
attr recordingmode vector(packetBytes)
attr source packetDropReasonIsHopLimitReached(packetDropped)
attr title "packet drop: hop limit reached, packetBytes"
vector 92 NetworkSlicing.gnb.ipv4.ip packetDropForwardingDisabled:vector(packetBytes) ETV
attr interpolationmode none
attr recordingmode vector(packetBytes)
attr source packetDropReasonIsForwardingDisabled(packetDropped)
attr title "packet drop: forwarding disabled, packetBytes"
vector 93 NetworkSlicing.gnb.ipv4.ip packetDropNoInterfaceFound:vector(packetBytes) ETV
attr interpolationmode none
attr recordingmode vector(packetBytes)
attr source packetDropReasonIsNoInterfaceFound(packetDropped)
attr title "packet drop: no interface found, packetBytes"
vector 94 NetworkSlicing.gnb.ipv4.ip packetDropNoRouteFound:vector(packetBytes) ETV
attr interpolationmode none
attr recordingmode vector(packetBytes)
attr source packetDropReasonIsNoRouteFound(packetDropped)
attr title "packet drop: no route found, packetBytes"
vector 95 NetworkSlicing.gnb.ipv4.ip packetDropUndefined:vector(packetBytes) ETV
attr interpolationmode none
attr recordingmode vector(packetBytes)
attr source packetDropReasonIsUndefined(packetDropped)
attr title "packet drop: undefined, packetBytes"
vector 96 NetworkSlicing.gnb.ipv4.arp arpRequestSent:vector(packetBytes) ETV
attr recordingmode vector(packetBytes)
attr source arpRequestSent
attr title "ARP request sent, packetBytes"
vector 97 NetworkSlicing.gnb.ipv4.arp arpReplySent:vector(packetBytes) ETV
attr recordingmode vector(packetBytes)
attr source arpReplySent
attr title "ARP replies sent, packetBytes"
vector 98 NetworkSlicing.gnb.udp packetSent:vector(packetBytes) ETV
attr interpolationmode none
attr recordingmode vector(packetBytes)
attr source packetSent
attr title "packets sent, packetBytes"
vector 99 NetworkSlicing.gnb.udp packetReceived:vector(packetBytes) ETV
attr interpolationmode none
attr recordingmode vector(packetBytes)
attr source packetReceived
attr title "packets received, packetBytes"
vector 100 NetworkSlicing.gnb.udp passedUpPk:vector(count) ETV
attr interpolationmode none
attr recordingmode vector(count)
attr source packetSentToUpper
attr title "packets passed up, count"
vector 101 NetworkSlicing.gnb.udp droppedPkWrongPort:vector(count) ETV
attr interpolationmode none
attr recordingmode vector(count)
attr source packetDropReasonIsNoPortFound(packetDropped)
attr title "packets dropped (wrong port), count"
vector 102 NetworkSlicing.gnb.udp droppedPkBadChecksum:vector(count) ETV
attr interpolationmode none
attr recordingmode vector(count)
attr source packetDropReasonIsIncorrectlyReceived(packetDropped)
attr title "packets dropped (checksum error), count"
vector 103 NetworkSlicing.iUpf.lo[0].lo rcvdPkFromHl:vector(packetBytes) ETV
attr interpolationmode none
attr recordingmode vector(packetBytes)
attr source packetReceivedFromUpper
attr title "packets received from higher layer, packetBytes"
vector 104 NetworkSlicing.iUpf.lo[0].lo passedUpPk:vector(packetBytes) ETV
attr interpolationmode none
attr recordingmode vector(packetBytes)
attr source packetSentToUpper
attr title "packets passed to higher layer, packetBytes"
vector 105 NetworkSlicing.iUpf.lo[0] packetDropInterfaceDown:vector(packetBytes) ETV
attr interpolationmode none
attr recordingmode vector(packetBytes)
attr source packetDropReasonIsInterfaceDown(packetDropped)
attr title "packet drops: interface down, packetBytes"
vector 106 NetworkSlicing.iUpf.lo[0] packetDropNoCarrier:vector(packetBytes) ETV
attr interpolationmode none
attr recordingmode vector(packetBytes)
attr source packetDropReasonIsNoCarrier(packetDropped)
attr title "packet drops: no carrier, packetBytes"
vector 107 NetworkSlicing.iUpf.ppp[0].queue queueLength:vector ETV
attr autoWarmupFilter false
attr interpolationmode sample-hold
attr recordingmode vector
attr source "warmup(atomic(constant0(packetPushEnded) + count(packetPushStarted) - count(packetPulled) - count(packetRemoved) - count(packetDropped)))"
attr title "queue length"
attr unit pk
vector 108 NetworkSlicing.iUpf.ppp[0].queue queueBitLength:vector ETV
attr autoWarmupFilter false
attr interpolationmode sample-hold
attr recordingmode vector
attr source "warmup(atomic(constant0(packetPushEnded) + sum(packetLength(packetPushStarted)) - sum(packetLength(packetPulled)) - sum(packetLength(packetRemoved)) - sum(packetLength(packetDropped))))"
attr title "queue bit length"
attr unit b
vector 109 NetworkSlicing.iUpf.ppp[0].queue queueingTime:vector ETV
attr interpolationmode none
attr recordingmode vector
attr source queueingTime(packetPulled)
attr title "queueing times"
attr unit s
vector 110 NetworkSlicing.iUpf.ppp[0].queue incomingPacketLengths:vector ETV
attr interpolationmode none
attr recordingmode vector
attr source packetLength(packetPushStarted)
attr title "incoming packet lengths"
attr unit b
vector 111 NetworkSlicing.iUpf.ppp[0].queue incomingDataRate:vector ETV
attr interpolationmode linear
attr recordingmode vector
attr source throughput(packetPushStarted)
attr title "incoming datarate"
attr unit bps
vector 112 NetworkSlicing.iUpf.ppp[0].queue outgoingPacketLengths:vector ETV
attr interpolationmode none
attr recordingmode vector
attr source packetLength(packetPulled)
attr title "outgoing packet lengths"
attr unit b
vector 113 NetworkSlicing.iUpf.ppp[0].queue outgoingDataRate:vector ETV
attr interpolationmode linear
attr recordingmode vector
attr source throughput(packetPulled)
attr title "outgoing datarate"
attr unit bps
vector 114 NetworkSlicing.iUpf.ppp[0].queue droppedPacketLengthsQueueOverflow:vector ETV
attr interpolationmode none
attr recordingmode vector
attr source packetLength(packetDropReasonIsQueueOverflow(packetDropped))
attr title "dropped packet lengths: queue overflow"
attr unit b
vector 115 NetworkSlicing.iUpf.ppp[0].queue flowQueueingTime:vector ETV
attr interpolationmode none
attr recordingmode vector
attr source queueingTime(demuxFlow(packetPulled))
attr title "flow queueing times"
attr unit s
vector 116 NetworkSlicing.iUpf.ppp[0].queue flowIncomingDataRate:vector ETV
attr interpolationmode linear
attr recordingmode vector
attr source throughput(flowPacketLength(demuxFlow(packetPushStarted)))
attr title "flow specific incoming data rate"
attr unit bps
vector 117 NetworkSlicing.iUpf.ppp[0].queue flowOutgoingDataRate:vector ETV
attr interpolationmode linear
attr recordingmode vector
attr source throughput(flowPacketLength(demuxFlow(packetPulled)))
attr title "flow specific outgoing data rate"
attr unit bps
vector 118 NetworkSlicing.iUpf.ppp[0].ppp transmissionState:vector ETV
attr interpolationmode sample-hold
attr recordingmode vector
attr source transmissionStateChanged
attr title "tx state"
vector 119 NetworkSlicing.iUpf.ppp[0].ppp txPk:vector(packetBytes) ETV
attr interpolationmode none
attr recordingmode vector(packetBytes)
attr source packetSentToLower
attr title "packets transmitted, packetBytes"
vector 120 NetworkSlicing.iUpf.ppp[0].ppp rxPkOk:vector(packetBytes) ETV
attr interpolationmode none
attr recordingmode vector(packetBytes)
attr source rxPkOk
attr title "packets received OK, packetBytes"
vector 121 NetworkSlicing.iUpf.ppp[0].ppp packetDropIncorrectlyReceived:vector(packetBytes) ETV
attr interpolationmode none
attr recordingmode vector(packetBytes)
attr source packetDropReasonIsIncorrectlyReceived(packetDropped)
attr title "packet drop: incorrectly received, packetBytes"
vector 122 NetworkSlicing.iUpf.ppp[0].ppp packetDropInterfaceDown:vector(packetBytes) ETV
attr interpolationmode none
attr recordingmode vector(packetBytes)
attr source packetDropReasonIsInterfaceDown(packetDropped)
attr title "packet drop: interface down, packetBytes"
vector 123 NetworkSlicing.iUpf.ppp[0].ppp rcvdPkFromHl:vector(packetBytes) ETV
attr interpolationmode none
attr recordingmode vector(packetBytes)
attr source packetReceivedFromUpper
attr title "packets received from higher layer, packetBytes"
vector 124 NetworkSlicing.iUpf.ppp[0].ppp passedUpPk:vector(packetBytes) ETV
attr interpolationmode none
attr recordingmode vector(packetBytes)
attr source packetSentToUpper
attr title "packets passed to higher layer, packetBytes"
vector 125 NetworkSlicing.iUpf.ppp[0] packetDropInterfaceDown:vector(packetBytes) ETV
attr interpolationmode none
attr recordingmode vector(packetBytes)
attr source packetDropReasonIsInterfaceDown(packetDropped)
attr title "packet drops: interface down, packetBytes"
vector 126 NetworkSlicing.iUpf.ppp[0] packetDropNoCarrier:vector(packetBytes) ETV
attr interpolationmode none
attr recordingmode vector(packetBytes)
attr source packetDropReasonIsNoCarrier(packetDropped)
attr title "packet drops: no carrier, packetBytes"
vector 127 NetworkSlicing.iUpf.ppp[1].queue queueLength:vector ETV
attr autoWarmupFilter false
attr interpolationmode sample-hold
attr recordingmode vector
attr source "warmup(atomic(constant0(packetPushEnded) + count(packetPushStarted) - count(packetPulled) - count(packetRemoved) - count(packetDropped)))"
attr title "queue length"
attr unit pk
vector 128 NetworkSlicing.iUpf.ppp[1].queue queueBitLength:vector ETV
attr autoWarmupFilter false
attr interpolationmode sample-hold
attr recordingmode vector
attr source "warmup(atomic(constant0(packetPushEnded) + sum(packetLength(packetPushStarted)) - sum(packetLength(packetPulled)) - sum(packetLength(packetRemoved)) - sum(packetLength(packetDropped))))"
attr title "queue bit length"
attr unit b
vector 129 NetworkSlicing.iUpf.ppp[1].queue queueingTime:vector ETV
attr interpolationmode none
attr recordingmode vector
attr source queueingTime(packetPulled)
attr title "queueing times"
attr unit s
vector 130 NetworkSlicing.iUpf.ppp[1].queue incomingPacketLengths:vector ETV
attr interpolationmode none
attr recordingmode vector
attr source packetLength(packetPushStarted)
attr title "incoming packet lengths"
attr unit b
vector 131 NetworkSlicing.iUpf.ppp[1].queue incomingDataRate:vector ETV
attr interpolationmode linear
attr recordingmode vector
attr source throughput(packetPushStarted)
attr title "incoming datarate"
attr unit bps
vector 132 NetworkSlicing.iUpf.ppp[1].queue outgoingPacketLengths:vector ETV
attr interpolationmode none
attr recordingmode vector
attr source packetLength(packetPulled)
attr title "outgoing packet lengths"
attr unit b
vector 133 NetworkSlicing.iUpf.ppp[1].queue outgoingDataRate:vector ETV
attr interpolationmode linear
attr recordingmode vector
attr source throughput(packetPulled)
attr title "outgoing datarate"
attr unit bps
vector 134 NetworkSlicing.iUpf.ppp[1].queue droppedPacketLengthsQueueOverflow:vector ETV
attr interpolationmode none
attr recordingmode vector
attr source packetLength(packetDropReasonIsQueueOverflow(packetDropped))
attr title "dropped packet lengths: queue overflow"
attr unit b
vector 135 NetworkSlicing.iUpf.ppp[1].queue flowQueueingTime:vector ETV
attr interpolationmode none
attr recordingmode vector
attr source queueingTime(demuxFlow(packetPulled))
attr title "flow queueing times"
attr unit s
vector 136 NetworkSlicing.iUpf.ppp[1].queue flowIncomingDataRate:vector ETV
attr interpolationmode linear
attr recordingmode vector
attr source throughput(flowPacketLength(demuxFlow(packetPushStarted)))
attr title "flow specific incoming data rate"
attr unit bps
vector 137 NetworkSlicing.iUpf.ppp[1].queue flowOutgoingDataRate:vector ETV
attr interpolationmode linear
attr recordingmode vector
attr source throughput(flowPacketLength(demuxFlow(packetPulled)))
attr title "flow specific outgoing data rate"
attr unit bps
vector 138 NetworkSlicing.iUpf.ppp[1].ppp transmissionState:vector ETV
attr interpolationmode sample-hold
attr recordingmode vector
attr source transmissionStateChanged
attr title "tx state"
vector 139 NetworkSlicing.iUpf.ppp[1].ppp txPk:vector(packetBytes) ETV
attr interpolationmode none
attr recordingmode vector(packetBytes)
attr source packetSentToLower
attr title "packets transmitted, packetBytes"
vector 140 NetworkSlicing.iUpf.ppp[1].ppp rxPkOk:vector(packetBytes) ETV
attr interpolationmode none
attr recordingmode vector(packetBytes)
attr source rxPkOk
attr title "packets received OK, packetBytes"
vector 141 NetworkSlicing.iUpf.ppp[1].ppp packetDropIncorrectlyReceived:vector(packetBytes) ETV
attr interpolationmode none
attr recordingmode vector(packetBytes)
attr source packetDropReasonIsIncorrectlyReceived(packetDropped)
attr title "packet drop: incorrectly received, packetBytes"
vector 142 NetworkSlicing.iUpf.ppp[1].ppp packetDropInterfaceDown:vector(packetBytes) ETV
attr interpolationmode none
attr recordingmode vector(packetBytes)
attr source packetDropReasonIsInterfaceDown(packetDropped)
attr title "packet drop: interface down, packetBytes"
vector 143 NetworkSlicing.iUpf.ppp[1].ppp rcvdPkFromHl:vector(packetBytes) ETV
attr interpolationmode none
attr recordingmode vector(packetBytes)
attr source packetReceivedFromUpper
attr title "packets received from higher layer, packetBytes"
vector 144 NetworkSlicing.iUpf.ppp[1].ppp passedUpPk:vector(packetBytes) ETV
attr interpolationmode none
attr recordingmode vector(packetBytes)
attr source packetSentToUpper
attr title "packets passed to higher layer, packetBytes"
vector 145 NetworkSlicing.iUpf.ppp[1] packetDropInterfaceDown:vector(packetBytes) ETV
attr interpolationmode none
attr recordingmode vector(packetBytes)
attr source packetDropReasonIsInterfaceDown(packetDropped)
attr title "packet drops: interface down, packetBytes"
vector 146 NetworkSlicing.iUpf.ppp[1] packetDropNoCarrier:vector(packetBytes) ETV
attr interpolationmode none
attr recordingmode vector(packetBytes)
attr source packetDropReasonIsNoCarrier(packetDropped)
attr title "packet drops: no carrier, packetBytes"
vector 147 NetworkSlicing.iUpf.ipv4.ip packetDropAddressResolutionFailed:vector(packetBytes) ETV
attr interpolationmode none
attr recordingmode vector(packetBytes)
attr source packetDropReasonIsAddressResolutionFailed(packetDropped)
attr title "packet drop: address resolution failed, packetBytes"
vector 148 NetworkSlicing.iUpf.ipv4.ip packetDropHopLimitReached:vector(packetBytes) ETV
attr interpolationmode none
attr recordingmode vector(packetBytes)
attr source packetDropReasonIsHopLimitReached(packetDropped)
attr title "packet drop: hop limit reached, packetBytes"
vector 149 NetworkSlicing.iUpf.ipv4.ip packetDropForwardingDisabled:vector(packetBytes) ETV
attr interpolationmode none
attr recordingmode vector(packetBytes)
attr source packetDropReasonIsForwardingDisabled(packetDropped)
attr title "packet drop: forwarding disabled, packetBytes"
vector 150 NetworkSlicing.iUpf.ipv4.ip packetDropNoInterfaceFound:vector(packetBytes) ETV
attr interpolationmode none
attr recordingmode vector(packetBytes)
attr source packetDropReasonIsNoInterfaceFound(packetDropped)
attr title "packet drop: no interface found, packetBytes"
vector 151 NetworkSlicing.iUpf.ipv4.ip packetDropNoRouteFound:vector(packetBytes) ETV
attr interpolationmode none
attr recordingmode vector(packetBytes)
attr source packetDropReasonIsNoRouteFound(packetDropped)
attr title "packet drop: no route found, packetBytes"
vector 152 NetworkSlicing.iUpf.ipv4.ip packetDropUndefined:vector(packetBytes) ETV
attr interpolationmode none
attr recordingmode vector(packetBytes)
attr source packetDropReasonIsUndefined(packetDropped)
attr title "packet drop: undefined, packetBytes"
vector 153 NetworkSlicing.iUpf.ipv4.arp arpRequestSent:vector(packetBytes) ETV
attr recordingmode vector(packetBytes)
attr source arpRequestSent
attr title "ARP request sent, packetBytes"
vector 154 NetworkSlicing.iUpf.ipv4.arp arpReplySent:vector(packetBytes) ETV
attr recordingmode vector(packetBytes)
attr source arpReplySent
attr title "ARP replies sent, packetBytes"
vector 155 NetworkSlicing.iUpf.pppIf.queue queueLength:vector ETV
attr autoWarmupFilter false
attr interpolationmode sample-hold
attr recordingmode vector
attr source "warmup(atomic(constant0(packetPushEnded) + count(packetPushStarted) - count(packetPulled) - count(packetRemoved) - count(packetDropped)))"
attr title "queue length"
attr unit pk
vector 156 NetworkSlicing.iUpf.pppIf.queue queueBitLength:vector ETV
attr autoWarmupFilter false
attr interpolationmode sample-hold
attr recordingmode vector
attr source "warmup(atomic(constant0(packetPushEnded) + sum(packetLength(packetPushStarted)) - sum(packetLength(packetPulled)) - sum(packetLength(packetRemoved)) - sum(packetLength(packetDropped))))"
attr title "queue bit length"
attr unit b
vector 157 NetworkSlicing.iUpf.pppIf.queue queueingTime:vector ETV
attr interpolationmode none
attr recordingmode vector
attr source queueingTime(packetPulled)
attr title "queueing times"
attr unit s
vector 158 NetworkSlicing.iUpf.pppIf.queue incomingPacketLengths:vector ETV
attr interpolationmode none
attr recordingmode vector
attr source packetLength(packetPushStarted)
attr title "incoming packet lengths"
attr unit b
vector 159 NetworkSlicing.iUpf.pppIf.queue incomingDataRate:vector ETV
attr interpolationmode linear
attr recordingmode vector
attr source throughput(packetPushStarted)
attr title "incoming datarate"
attr unit bps
vector 160 NetworkSlicing.iUpf.pppIf.queue outgoingPacketLengths:vector ETV
attr interpolationmode none
attr recordingmode vector
attr source packetLength(packetPulled)
attr title "outgoing packet lengths"
attr unit b
vector 161 NetworkSlicing.iUpf.pppIf.queue outgoingDataRate:vector ETV
attr interpolationmode linear
attr recordingmode vector
attr source throughput(packetPulled)
attr title "outgoing datarate"
attr unit bps
vector 162 NetworkSlicing.iUpf.pppIf.queue droppedPacketLengthsQueueOverflow:vector ETV
attr interpolationmode none
attr recordingmode vector
attr source packetLength(packetDropReasonIsQueueOverflow(packetDropped))
attr title "dropped packet lengths: queue overflow"
attr unit b
vector 163 NetworkSlicing.iUpf.pppIf.queue flowQueueingTime:vector ETV
attr interpolationmode none
attr recordingmode vector
attr source queueingTime(demuxFlow(packetPulled))
attr title "flow queueing times"
attr unit s
vector 164 NetworkSlicing.iUpf.pppIf.queue flowIncomingDataRate:vector ETV
attr interpolationmode linear
attr recordingmode vector
attr source throughput(flowPacketLength(demuxFlow(packetPushStarted)))
attr title "flow specific incoming data rate"
attr unit bps
vector 165 NetworkSlicing.iUpf.pppIf.queue flowOutgoingDataRate:vector ETV
attr interpolationmode linear
attr recordingmode vector
attr source throughput(flowPacketLength(demuxFlow(packetPulled)))
attr title "flow specific outgoing data rate"
attr unit bps
vector 166 NetworkSlicing.iUpf.pppIf.ppp transmissionState:vector ETV
attr interpolationmode sample-hold
attr recordingmode vector
attr source transmissionStateChanged
attr title "tx state"
vector 167 NetworkSlicing.iUpf.pppIf.ppp txPk:vector(packetBytes) ETV
attr interpolationmode none
attr recordingmode vector(packetBytes)
attr source packetSentToLower
attr title "packets transmitted, packetBytes"
vector 168 NetworkSlicing.iUpf.pppIf.ppp rxPkOk:vector(packetBytes) ETV
attr interpolationmode none
attr recordingmode vector(packetBytes)
attr source rxPkOk
attr title "packets received OK, packetBytes"
vector 169 NetworkSlicing.iUpf.pppIf.ppp packetDropIncorrectlyReceived:vector(packetBytes) ETV
attr interpolationmode none
attr recordingmode vector(packetBytes)
attr source packetDropReasonIsIncorrectlyReceived(packetDropped)
attr title "packet drop: incorrectly received, packetBytes"
vector 170 NetworkSlicing.iUpf.pppIf.ppp packetDropInterfaceDown:vector(packetBytes) ETV
attr interpolationmode none
attr recordingmode vector(packetBytes)
attr source packetDropReasonIsInterfaceDown(packetDropped)
attr title "packet drop: interface down, packetBytes"
vector 171 NetworkSlicing.iUpf.pppIf.ppp rcvdPkFromHl:vector(packetBytes) ETV
attr interpolationmode none
attr recordingmode vector(packetBytes)
attr source packetReceivedFromUpper
attr title "packets received from higher layer, packetBytes"
vector 172 NetworkSlicing.iUpf.pppIf.ppp passedUpPk:vector(packetBytes) ETV
attr interpolationmode none
attr recordingmode vector(packetBytes)
attr source packetSentToUpper
attr title "packets passed to higher layer, packetBytes"
vector 173 NetworkSlicing.iUpf.pppIf packetDropInterfaceDown:vector(packetBytes) ETV
attr interpolationmode none
attr recordingmode vector(packetBytes)
attr source packetDropReasonIsInterfaceDown(packetDropped)
attr title "packet drops: interface down, packetBytes"
vector 174 NetworkSlicing.iUpf.pppIf packetDropNoCarrier:vector(packetBytes) ETV
attr interpolationmode none
attr recordingmode vector(packetBytes)
attr source packetDropReasonIsNoCarrier(packetDropped)
attr title "packet drops: no carrier, packetBytes"
vector 175 NetworkSlicing.iUpf.udp packetSent:vector(packetBytes) ETV
attr interpolationmode none
attr recordingmode vector(packetBytes)
attr source packetSent
attr title "packets sent, packetBytes"
vector 176 NetworkSlicing.iUpf.udp packetReceived:vector(packetBytes) ETV
attr interpolationmode none
attr recordingmode vector(packetBytes)
attr source packetReceived
attr title "packets received, packetBytes"
vector 177 NetworkSlicing.iUpf.udp passedUpPk:vector(count) ETV
attr interpolationmode none
attr recordingmode vector(count)
attr source packetSentToUpper
attr title "packets passed up, count"
vector 178 NetworkSlicing.iUpf.udp droppedPkWrongPort:vector(count) ETV
attr interpolationmode none
attr recordingmode vector(count)
attr source packetDropReasonIsNoPortFound(packetDropped)
attr title "packets dropped (wrong port), count"
vector 179 NetworkSlicing.iUpf.udp droppedPkBadChecksum:vector(count) ETV
attr interpolationmode none
attr recordingmode vector(count)
attr source packetDropReasonIsIncorrectlyReceived(packetDropped)
attr title "packets dropped (checksum error), count"
vector 180 NetworkSlicing.upf.lo[0].lo rcvdPkFromHl:vector(packetBytes) ETV
attr interpolationmode none
attr recordingmode vector(packetBytes)
attr source packetReceivedFromUpper
attr title "packets received from higher layer, packetBytes"
vector 181 NetworkSlicing.upf.lo[0].lo passedUpPk:vector(packetBytes) ETV
attr interpolationmode none
attr recordingmode vector(packetBytes)
attr source packetSentToUpper
attr title "packets passed to higher layer, packetBytes"
vector 182 NetworkSlicing.upf.lo[0] packetDropInterfaceDown:vector(packetBytes) ETV
attr interpolationmode none
attr recordingmode vector(packetBytes)
attr source packetDropReasonIsInterfaceDown(packetDropped)
attr title "packet drops: interface down, packetBytes"
vector 183 NetworkSlicing.upf.lo[0] packetDropNoCarrier:vector(packetBytes) ETV
attr interpolationmode none
attr recordingmode vector(packetBytes)
attr source packetDropReasonIsNoCarrier(packetDropped)
attr title "packet drops: no carrier, packetBytes"
vector 184 NetworkSlicing.upf.ppp[0].queue queueLength:vector ETV
attr autoWarmupFilter false
attr interpolationmode sample-hold
attr recordingmode vector
attr source "warmup(atomic(constant0(packetPushEnded) + count(packetPushStarted) - count(packetPulled) - count(packetRemoved) - count(packetDropped)))"
attr title "queue length"
attr unit pk
vector 185 NetworkSlicing.upf.ppp[0].queue queueBitLength:vector ETV
attr autoWarmupFilter false
attr interpolationmode sample-hold
attr recordingmode vector
attr source "warmup(atomic(constant0(packetPushEnded) + sum(packetLength(packetPushStarted)) - sum(packetLength(packetPulled)) - sum(packetLength(packetRemoved)) - sum(packetLength(packetDropped))))"
attr title "queue bit length"
attr unit b
vector 186 NetworkSlicing.upf.ppp[0].queue queueingTime:vector ETV
attr interpolationmode none
attr recordingmode vector
attr source queueingTime(packetPulled)
attr title "queueing times"
attr unit s
vector 187 NetworkSlicing.upf.ppp[0].queue incomingPacketLengths:vector ETV
attr interpolationmode none
attr recordingmode vector
attr source packetLength(packetPushStarted)
attr title "incoming packet lengths"
attr unit b
vector 188 NetworkSlicing.upf.ppp[0].queue incomingDataRate:vector ETV
attr interpolationmode linear
attr recordingmode vector
attr source throughput(packetPushStarted)
attr title "incoming datarate"
attr unit bps
vector 189 NetworkSlicing.upf.ppp[0].queue outgoingPacketLengths:vector ETV
attr interpolationmode none
attr recordingmode vector
attr source packetLength(packetPulled)
attr title "outgoing packet lengths"
attr unit b
vector 190 NetworkSlicing.upf.ppp[0].queue outgoingDataRate:vector ETV
attr interpolationmode linear
attr recordingmode vector
attr source throughput(packetPulled)
attr title "outgoing datarate"
attr unit bps
vector 191 NetworkSlicing.upf.ppp[0].queue droppedPacketLengthsQueueOverflow:vector ETV
attr interpolationmode none
attr recordingmode vector
attr source packetLength(packetDropReasonIsQueueOverflow(packetDropped))
attr title "dropped packet lengths: queue overflow"
attr unit b
vector 192 NetworkSlicing.upf.ppp[0].queue flowQueueingTime:vector ETV
attr interpolationmode none
attr recordingmode vector
attr source queueingTime(demuxFlow(packetPulled))
attr title "flow queueing times"
attr unit s
vector 193 NetworkSlicing.upf.ppp[0].queue flowIncomingDataRate:vector ETV
attr interpolationmode linear
attr recordingmode vector
attr source throughput(flowPacketLength(demuxFlow(packetPushStarted)))
attr title "flow specific incoming data rate"
attr unit bps
vector 194 NetworkSlicing.upf.ppp[0].queue flowOutgoingDataRate:vector ETV
attr interpolationmode linear
attr recordingmode vector
attr source throughput(flowPacketLength(demuxFlow(packetPulled)))
attr title "flow specific outgoing data rate"
attr unit bps
vector 195 NetworkSlicing.upf.ppp[0].ppp transmissionState:vector ETV
attr interpolationmode sample-hold
attr recordingmode vector
attr source transmissionStateChanged
attr title "tx state"
vector 196 NetworkSlicing.upf.ppp[0].ppp txPk:vector(packetBytes) ETV
attr interpolationmode none
attr recordingmode vector(packetBytes)
attr source packetSentToLower
attr title "packets transmitted, packetBytes"
vector 197 NetworkSlicing.upf.ppp[0].ppp rxPkOk:vector(packetBytes) ETV
attr interpolationmode none
attr recordingmode vector(packetBytes)
attr source rxPkOk
attr title "packets received OK, packetBytes"
vector 198 NetworkSlicing.upf.ppp[0].ppp packetDropIncorrectlyReceived:vector(packetBytes) ETV
attr interpolationmode none
attr recordingmode vector(packetBytes)
attr source packetDropReasonIsIncorrectlyReceived(packetDropped)
attr title "packet drop: incorrectly received, packetBytes"
vector 199 NetworkSlicing.upf.ppp[0].ppp packetDropInterfaceDown:vector(packetBytes) ETV
attr interpolationmode none
attr recordingmode vector(packetBytes)
attr source packetDropReasonIsInterfaceDown(packetDropped)
attr title "packet drop: interface down, packetBytes"
vector 200 NetworkSlicing.upf.ppp[0].ppp rcvdPkFromHl:vector(packetBytes) ETV
attr interpolationmode none
attr recordingmode vector(packetBytes)
attr source packetReceivedFromUpper
attr title "packets received from higher layer, packetBytes"
vector 201 NetworkSlicing.upf.ppp[0].ppp passedUpPk:vector(packetBytes) ETV
attr interpolationmode none
attr recordingmode vector(packetBytes)
attr source packetSentToUpper
attr title "packets passed to higher layer, packetBytes"
vector 202 NetworkSlicing.upf.ppp[0] packetDropInterfaceDown:vector(packetBytes) ETV
attr interpolationmode none
attr recordingmode vector(packetBytes)
attr source packetDropReasonIsInterfaceDown(packetDropped)
attr title "packet drops: interface down, packetBytes"
vector 203 NetworkSlicing.upf.ppp[0] packetDropNoCarrier:vector(packetBytes) ETV
attr interpolationmode none
attr recordingmode vector(packetBytes)
attr source packetDropReasonIsNoCarrier(packetDropped)
attr title "packet drops: no carrier, packetBytes"
vector 204 NetworkSlicing.upf.ipv4.ip packetDropAddressResolutionFailed:vector(packetBytes) ETV
attr interpolationmode none
attr recordingmode vector(packetBytes)
attr source packetDropReasonIsAddressResolutionFailed(packetDropped)
attr title "packet drop: address resolution failed, packetBytes"
vector 205 NetworkSlicing.upf.ipv4.ip packetDropHopLimitReached:vector(packetBytes) ETV
attr interpolationmode none
attr recordingmode vector(packetBytes)
attr source packetDropReasonIsHopLimitReached(packetDropped)
attr title "packet drop: hop limit reached, packetBytes"
vector 206 NetworkSlicing.upf.ipv4.ip packetDropForwardingDisabled:vector(packetBytes) ETV
attr interpolationmode none
attr recordingmode vector(packetBytes)
attr source packetDropReasonIsForwardingDisabled(packetDropped)
attr title "packet drop: forwarding disabled, packetBytes"
vector 207 NetworkSlicing.upf.ipv4.ip packetDropNoInterfaceFound:vector(packetBytes) ETV
attr interpolationmode none
attr recordingmode vector(packetBytes)
attr source packetDropReasonIsNoInterfaceFound(packetDropped)
attr title "packet drop: no interface found, packetBytes"
vector 208 NetworkSlicing.upf.ipv4.ip packetDropNoRouteFound:vector(packetBytes) ETV
attr interpolationmode none
attr recordingmode vector(packetBytes)
attr source packetDropReasonIsNoRouteFound(packetDropped)
attr title "packet drop: no route found, packetBytes"
vector 209 NetworkSlicing.upf.ipv4.ip packetDropUndefined:vector(packetBytes) ETV
attr interpolationmode none
attr recordingmode vector(packetBytes)
attr source packetDropReasonIsUndefined(packetDropped)
attr title "packet drop: undefined, packetBytes"
vector 210 NetworkSlicing.upf.ipv4.arp arpRequestSent:vector(packetBytes) ETV
attr recordingmode vector(packetBytes)
attr source arpRequestSent
attr title "ARP request sent, packetBytes"
vector 211 NetworkSlicing.upf.ipv4.arp arpReplySent:vector(packetBytes) ETV
attr recordingmode vector(packetBytes)
attr source arpReplySent
attr title "ARP replies sent, packetBytes"
vector 212 NetworkSlicing.upf.pppIf.queue queueLength:vector ETV
attr autoWarmupFilter false
attr interpolationmode sample-hold
attr recordingmode vector
attr source "warmup(atomic(constant0(packetPushEnded) + count(packetPushStarted) - count(packetPulled) - count(packetRemoved) - count(packetDropped)))"
attr title "queue length"
attr unit pk
vector 213 NetworkSlicing.upf.pppIf.queue queueBitLength:vector ETV
attr autoWarmupFilter false
attr interpolationmode sample-hold
attr recordingmode vector
attr source "warmup(atomic(constant0(packetPushEnded) + sum(packetLength(packetPushStarted)) - sum(packetLength(packetPulled)) - sum(packetLength(packetRemoved)) - sum(packetLength(packetDropped))))"
attr title "queue bit length"
attr unit b
vector 214 NetworkSlicing.upf.pppIf.queue queueingTime:vector ETV
attr interpolationmode none
attr recordingmode vector
attr source queueingTime(packetPulled)
attr title "queueing times"
attr unit s
vector 215 NetworkSlicing.upf.pppIf.queue incomingPacketLengths:vector ETV
attr interpolationmode none
attr recordingmode vector
attr source packetLength(packetPushStarted)
attr title "incoming packet lengths"
attr unit b
vector 216 NetworkSlicing.upf.pppIf.queue incomingDataRate:vector ETV
attr interpolationmode linear
attr recordingmode vector
attr source throughput(packetPushStarted)
attr title "incoming datarate"
attr unit bps
vector 217 NetworkSlicing.upf.pppIf.queue outgoingPacketLengths:vector ETV
attr interpolationmode none
attr recordingmode vector
attr source packetLength(packetPulled)
attr title "outgoing packet lengths"
attr unit b
vector 218 NetworkSlicing.upf.pppIf.queue outgoingDataRate:vector ETV
attr interpolationmode linear
attr recordingmode vector
attr source throughput(packetPulled)
attr title "outgoing datarate"
attr unit bps
vector 219 NetworkSlicing.upf.pppIf.queue droppedPacketLengthsQueueOverflow:vector ETV
attr interpolationmode none
attr recordingmode vector
attr source packetLength(packetDropReasonIsQueueOverflow(packetDropped))
attr title "dropped packet lengths: queue overflow"
attr unit b
vector 220 NetworkSlicing.upf.pppIf.queue flowQueueingTime:vector ETV
attr interpolationmode none
attr recordingmode vector
attr source queueingTime(demuxFlow(packetPulled))
attr title "flow queueing times"
attr unit s
vector 221 NetworkSlicing.upf.pppIf.queue flowIncomingDataRate:vector ETV
attr interpolationmode linear
attr recordingmode vector
attr source throughput(flowPacketLength(demuxFlow(packetPushStarted)))
attr title "flow specific incoming data rate"
attr unit bps
vector 222 NetworkSlicing.upf.pppIf.queue flowOutgoingDataRate:vector ETV
attr interpolationmode linear
attr recordingmode vector
attr source throughput(flowPacketLength(demuxFlow(packetPulled)))
attr title "flow specific outgoing data rate"
attr unit bps
vector 223 NetworkSlicing.upf.pppIf.ppp transmissionState:vector ETV
attr interpolationmode sample-hold
attr recordingmode vector
attr source transmissionStateChanged
attr title "tx state"
vector 224 NetworkSlicing.upf.pppIf.ppp txPk:vector(packetBytes) ETV
attr interpolationmode none
attr recordingmode vector(packetBytes)
attr source packetSentToLower
attr title "packets transmitted, packetBytes"
vector 225 NetworkSlicing.upf.pppIf.ppp rxPkOk:vector(packetBytes) ETV
attr interpolationmode none
attr recordingmode vector(packetBytes)
attr source rxPkOk
attr title "packets received OK, packetBytes"
vector 226 NetworkSlicing.upf.pppIf.ppp packetDropIncorrectlyReceived:vector(packetBytes) ETV
attr interpolationmode none
attr recordingmode vector(packetBytes)
attr source packetDropReasonIsIncorrectlyReceived(packetDropped)
attr title "packet drop: incorrectly received, packetBytes"
vector 227 NetworkSlicing.upf.pppIf.ppp packetDropInterfaceDown:vector(packetBytes) ETV
attr interpolationmode none
attr recordingmode vector(packetBytes)
attr source packetDropReasonIsInterfaceDown(packetDropped)
attr title "packet drop: interface down, packetBytes"
vector 228 NetworkSlicing.upf.pppIf.ppp rcvdPkFromHl:vector(packetBytes) ETV
attr interpolationmode none
attr recordingmode vector(packetBytes)
attr source packetReceivedFromUpper
attr title "packets received from higher layer, packetBytes"
vector 229 NetworkSlicing.upf.pppIf.ppp passedUpPk:vector(packetBytes) ETV
attr interpolationmode none
attr recordingmode vector(packetBytes)
attr source packetSentToUpper
attr title "packets passed to higher layer, packetBytes"
vector 230 NetworkSlicing.upf.pppIf packetDropInterfaceDown:vector(packetBytes) ETV
attr interpolationmode none
attr recordingmode vector(packetBytes)
attr source packetDropReasonIsInterfaceDown(packetDropped)
attr title "packet drops: interface down, packetBytes"
vector 231 NetworkSlicing.upf.pppIf packetDropNoCarrier:vector(packetBytes) ETV
attr interpolationmode none
attr recordingmode vector(packetBytes)
attr source packetDropReasonIsNoCarrier(packetDropped)
attr title "packet drops: no carrier, packetBytes"
vector 232 NetworkSlicing.upf.udp packetSent:vector(packetBytes) ETV
attr interpolationmode none
attr recordingmode vector(packetBytes)
attr source packetSent
attr title "packets sent, packetBytes"
vector 233 NetworkSlicing.upf.udp packetReceived:vector(packetBytes) ETV
attr interpolationmode none
attr recordingmode vector(packetBytes)
attr source packetReceived
attr title "packets received, packetBytes"
vector 234 NetworkSlicing.upf.udp passedUpPk:vector(count) ETV
attr interpolationmode none
attr recordingmode vector(count)
attr source packetSentToUpper
attr title "packets passed up, count"
vector 235 NetworkSlicing.upf.udp droppedPkWrongPort:vector(count) ETV
attr interpolationmode none
attr recordingmode vector(count)
attr source packetDropReasonIsNoPortFound(packetDropped)
attr title "packets dropped (wrong port), count"
vector 236 NetworkSlicing.upf.udp droppedPkBadChecksum:vector(count) ETV
attr interpolationmode none
attr recordingmode vector(count)
attr source packetDropReasonIsIncorrectlyReceived(packetDropped)
attr title "packets dropped (checksum error), count"
vector 237 NetworkSlicing.router.lo[0].lo rcvdPkFromHl:vector(packetBytes) ETV
attr interpolationmode none
attr recordingmode vector(packetBytes)
attr source packetReceivedFromUpper
attr title "packets received from higher layer, packetBytes"
vector 238 NetworkSlicing.router.lo[0].lo passedUpPk:vector(packetBytes) ETV
attr interpolationmode none
attr recordingmode vector(packetBytes)
attr source packetSentToUpper
attr title "packets passed to higher layer, packetBytes"
vector 239 NetworkSlicing.router.lo[0] packetDropInterfaceDown:vector(packetBytes) ETV
attr interpolationmode none
attr recordingmode vector(packetBytes)
attr source packetDropReasonIsInterfaceDown(packetDropped)
attr title "packet drops: interface down, packetBytes"
vector 240 NetworkSlicing.router.lo[0] packetDropNoCarrier:vector(packetBytes) ETV
attr interpolationmode none
attr recordingmode vector(packetBytes)
attr source packetDropReasonIsNoCarrier(packetDropped)
attr title "packet drops: no carrier, packetBytes"
vector 241 NetworkSlicing.router.ppp[0].queue queueLength:vector ETV
attr autoWarmupFilter false
attr interpolationmode sample-hold
attr recordingmode vector
attr source "warmup(atomic(constant0(packetPushEnded) + count(packetPushStarted) - count(packetPulled) - count(packetRemoved) - count(packetDropped)))"
attr title "queue length"
attr unit pk
vector 242 NetworkSlicing.router.ppp[0].queue queueBitLength:vector ETV
attr autoWarmupFilter false
attr interpolationmode sample-hold
attr recordingmode vector
attr source "warmup(atomic(constant0(packetPushEnded) + sum(packetLength(packetPushStarted)) - sum(packetLength(packetPulled)) - sum(packetLength(packetRemoved)) - sum(packetLength(packetDropped))))"
attr title "queue bit length"
attr unit b
vector 243 NetworkSlicing.router.ppp[0].queue queueingTime:vector ETV
attr interpolationmode none
attr recordingmode vector
attr source queueingTime(packetPulled)
attr title "queueing times"
attr unit s
vector 244 NetworkSlicing.router.ppp[0].queue incomingPacketLengths:vector ETV
attr interpolationmode none
attr recordingmode vector
attr source packetLength(packetPushStarted)
attr title "incoming packet lengths"
attr unit b
vector 245 NetworkSlicing.router.ppp[0].queue incomingDataRate:vector ETV
attr interpolationmode linear
attr recordingmode vector
attr source throughput(packetPushStarted)
attr title "incoming datarate"
attr unit bps
vector 246 NetworkSlicing.router.ppp[0].queue outgoingPacketLengths:vector ETV
attr interpolationmode none
attr recordingmode vector
attr source packetLength(packetPulled)
attr title "outgoing packet lengths"
attr unit b
vector 247 NetworkSlicing.router.ppp[0].queue outgoingDataRate:vector ETV
attr interpolationmode linear
attr recordingmode vector
attr source throughput(packetPulled)
attr title "outgoing datarate"
attr unit bps
vector 248 NetworkSlicing.router.ppp[0].queue droppedPacketLengthsQueueOverflow:vector ETV
attr interpolationmode none
attr recordingmode vector
attr source packetLength(packetDropReasonIsQueueOverflow(packetDropped))
attr title "dropped packet lengths: queue overflow"
attr unit b
vector 249 NetworkSlicing.router.ppp[0].queue flowQueueingTime:vector ETV
attr interpolationmode none
attr recordingmode vector
attr source queueingTime(demuxFlow(packetPulled))
attr title "flow queueing times"
attr unit s
vector 250 NetworkSlicing.router.ppp[0].queue flowIncomingDataRate:vector ETV
attr interpolationmode linear
attr recordingmode vector
attr source throughput(flowPacketLength(demuxFlow(packetPushStarted)))
attr title "flow specific incoming data rate"
attr unit bps
vector 251 NetworkSlicing.router.ppp[0].queue flowOutgoingDataRate:vector ETV
attr interpolationmode linear
attr recordingmode vector
attr source throughput(flowPacketLength(demuxFlow(packetPulled)))
attr title "flow specific outgoing data rate"
attr unit bps
vector 252 NetworkSlicing.router.ppp[0].ppp transmissionState:vector ETV
attr interpolationmode sample-hold
attr recordingmode vector
attr source transmissionStateChanged
attr title "tx state"
vector 253 NetworkSlicing.router.ppp[0].ppp txPk:vector(packetBytes) ETV
attr interpolationmode none
attr recordingmode vector(packetBytes)
attr source packetSentToLower
attr title "packets transmitted, packetBytes"
vector 254 NetworkSlicing.router.ppp[0].ppp rxPkOk:vector(packetBytes) ETV
attr interpolationmode none
attr recordingmode vector(packetBytes)
attr source rxPkOk
attr title "packets received OK, packetBytes"
vector 255 NetworkSlicing.router.ppp[0].ppp packetDropIncorrectlyReceived:vector(packetBytes) ETV
attr interpolationmode none
attr recordingmode vector(packetBytes)
attr source packetDropReasonIsIncorrectlyReceived(packetDropped)
attr title "packet drop: incorrectly received, packetBytes"
vector 256 NetworkSlicing.router.ppp[0].ppp packetDropInterfaceDown:vector(packetBytes) ETV
attr interpolationmode none
attr recordingmode vector(packetBytes)
attr source packetDropReasonIsInterfaceDown(packetDropped)
attr title "packet drop: interface down, packetBytes"
vector 257 NetworkSlicing.router.ppp[0].ppp rcvdPkFromHl:vector(packetBytes) ETV
attr interpolationmode none
attr recordingmode vector(packetBytes)
attr source packetReceivedFromUpper
attr title "packets received from higher layer, packetBytes"
vector 258 NetworkSlicing.router.ppp[0].ppp passedUpPk:vector(packetBytes) ETV
attr interpolationmode none
attr recordingmode vector(packetBytes)
attr source packetSentToUpper
attr title "packets passed to higher layer, packetBytes"
vector 259 NetworkSlicing.router.ppp[0] packetDropInterfaceDown:vector(packetBytes) ETV
attr interpolationmode none
attr recordingmode vector(packetBytes)
attr source packetDropReasonIsInterfaceDown(packetDropped)
attr title "packet drops: interface down, packetBytes"
vector 260 NetworkSlicing.router.ppp[0] packetDropNoCarrier:vector(packetBytes) ETV
attr interpolationmode none
attr recordingmode vector(packetBytes)
attr source packetDropReasonIsNoCarrier(packetDropped)
attr title "packet drops: no carrier, packetBytes"
vector 261 NetworkSlicing.router.ppp[1].queue queueLength:vector ETV
attr autoWarmupFilter false
attr interpolationmode sample-hold
attr recordingmode vector
attr source "warmup(atomic(constant0(packetPushEnded) + count(packetPushStarted) - count(packetPulled) - count(packetRemoved) - count(packetDropped)))"
attr title "queue length"
attr unit pk
vector 262 NetworkSlicing.router.ppp[1].queue queueBitLength:vector ETV
attr autoWarmupFilter false
attr interpolationmode sample-hold
attr recordingmode vector
attr source "warmup(atomic(constant0(packetPushEnded) + sum(packetLength(packetPushStarted)) - sum(packetLength(packetPulled)) - sum(packetLength(packetRemoved)) - sum(packetLength(packetDropped))))"
attr title "queue bit length"
attr unit b
vector 263 NetworkSlicing.router.ppp[1].queue queueingTime:vector ETV
attr interpolationmode none
attr recordingmode vector
attr source queueingTime(packetPulled)
attr title "queueing times"
attr unit s
vector 264 NetworkSlicing.router.ppp[1].queue incomingPacketLengths:vector ETV
attr interpolationmode none
attr recordingmode vector
attr source packetLength(packetPushStarted)
attr title "incoming packet lengths"
attr unit b
vector 265 NetworkSlicing.router.ppp[1].queue incomingDataRate:vector ETV
attr interpolationmode linear
attr recordingmode vector
attr source throughput(packetPushStarted)
attr title "incoming datarate"
attr unit bps
vector 266 NetworkSlicing.router.ppp[1].queue outgoingPacketLengths:vector ETV
attr interpolationmode none
attr recordingmode vector
attr source packetLength(packetPulled)
attr title "outgoing packet lengths"
attr unit b
vector 267 NetworkSlicing.router.ppp[1].queue outgoingDataRate:vector ETV
attr interpolationmode linear
attr recordingmode vector
attr source throughput(packetPulled)
attr title "outgoing datarate"
attr unit bps
vector 268 NetworkSlicing.router.ppp[1].queue droppedPacketLengthsQueueOverflow:vector ETV
attr interpolationmode none
attr recordingmode vector
attr source packetLength(packetDropReasonIsQueueOverflow(packetDropped))
attr title "dropped packet lengths: queue overflow"
attr unit b
vector 269 NetworkSlicing.router.ppp[1].queue flowQueueingTime:vector ETV
attr interpolationmode none
attr recordingmode vector
attr source queueingTime(demuxFlow(packetPulled))
attr title "flow queueing times"
attr unit s
vector 270 NetworkSlicing.router.ppp[1].queue flowIncomingDataRate:vector ETV
attr interpolationmode linear
attr recordingmode vector
attr source throughput(flowPacketLength(demuxFlow(packetPushStarted)))
attr title "flow specific incoming data rate"
attr unit bps
vector 271 NetworkSlicing.router.ppp[1].queue flowOutgoingDataRate:vector ETV
attr interpolationmode linear
attr recordingmode vector
attr source throughput(flowPacketLength(demuxFlow(packetPulled)))
attr title "flow specific outgoing data rate"
attr unit bps
vector 272 NetworkSlicing.router.ppp[1].ppp transmissionState:vector ETV
attr interpolationmode sample-hold
attr recordingmode vector
attr source transmissionStateChanged
attr title "tx state"
vector 273 NetworkSlicing.router.ppp[1].ppp txPk:vector(packetBytes) ETV
attr interpolationmode none
attr recordingmode vector(packetBytes)
attr source packetSentToLower
attr title "packets transmitted, packetBytes"
vector 274 NetworkSlicing.router.ppp[1].ppp rxPkOk:vector(packetBytes) ETV
attr interpolationmode none
attr recordingmode vector(packetBytes)
attr source rxPkOk
attr title "packets received OK, packetBytes"
vector 275 NetworkSlicing.router.ppp[1].ppp packetDropIncorrectlyReceived:vector(packetBytes) ETV
attr interpolationmode none
attr recordingmode vector(packetBytes)
attr source packetDropReasonIsIncorrectlyReceived(packetDropped)
attr title "packet drop: incorrectly received, packetBytes"
vector 276 NetworkSlicing.router.ppp[1].ppp packetDropInterfaceDown:vector(packetBytes) ETV
attr interpolationmode none
attr recordingmode vector(packetBytes)
attr source packetDropReasonIsInterfaceDown(packetDropped)
attr title "packet drop: interface down, packetBytes"
vector 277 NetworkSlicing.router.ppp[1].ppp rcvdPkFromHl:vector(packetBytes) ETV
attr interpolationmode none
attr recordingmode vector(packetBytes)
attr source packetReceivedFromUpper
attr title "packets received from higher layer, packetBytes"
vector 278 NetworkSlicing.router.ppp[1].ppp passedUpPk:vector(packetBytes) ETV
attr interpolationmode none
attr recordingmode vector(packetBytes)
attr source packetSentToUpper
attr title "packets passed to higher layer, packetBytes"
vector 279 NetworkSlicing.router.ppp[1] packetDropInterfaceDown:vector(packetBytes) ETV
attr interpolationmode none
attr recordingmode vector(packetBytes)
attr source packetDropReasonIsInterfaceDown(packetDropped)
attr title "packet drops: interface down, packetBytes"
vector 280 NetworkSlicing.router.ppp[1] packetDropNoCarrier:vector(packetBytes) ETV
attr interpolationmode none
attr recordingmode vector(packetBytes)
attr source packetDropReasonIsNoCarrier(packetDropped)
attr title "packet drops: no carrier, packetBytes"
vector 281 NetworkSlicing.router.ppp[2].queue queueLength:vector ETV
attr autoWarmupFilter false
attr interpolationmode sample-hold
attr recordingmode vector
attr source "warmup(atomic(constant0(packetPushEnded) + count(packetPushStarted) - count(packetPulled) - count(packetRemoved) - count(packetDropped)))"
attr title "queue length"
attr unit pk
vector 282 NetworkSlicing.router.ppp[2].queue queueBitLength:vector ETV
attr autoWarmupFilter false
attr interpolationmode sample-hold
attr recordingmode vector
attr source "warmup(atomic(constant0(packetPushEnded) + sum(packetLength(packetPushStarted)) - sum(packetLength(packetPulled)) - sum(packetLength(packetRemoved)) - sum(packetLength(packetDropped))))"
attr title "queue bit length"
attr unit b
vector 283 NetworkSlicing.router.ppp[2].queue queueingTime:vector ETV
attr interpolationmode none
attr recordingmode vector
attr source queueingTime(packetPulled)
attr title "queueing times"
attr unit s
vector 284 NetworkSlicing.router.ppp[2].queue incomingPacketLengths:vector ETV
attr interpolationmode none
attr recordingmode vector
attr source packetLength(packetPushStarted)
attr title "incoming packet lengths"
attr unit b
vector 285 NetworkSlicing.router.ppp[2].queue incomingDataRate:vector ETV
attr interpolationmode linear
attr recordingmode vector
attr source throughput(packetPushStarted)
attr title "incoming datarate"
attr unit bps
vector 286 NetworkSlicing.router.ppp[2].queue outgoingPacketLengths:vector ETV
attr interpolationmode none
attr recordingmode vector
attr source packetLength(packetPulled)
attr title "outgoing packet lengths"
attr unit b
vector 287 NetworkSlicing.router.ppp[2].queue outgoingDataRate:vector ETV
attr interpolationmode linear
attr recordingmode vector
attr source throughput(packetPulled)
attr title "outgoing datarate"
attr unit bps
vector 288 NetworkSlicing.router.ppp[2].queue droppedPacketLengthsQueueOverflow:vector ETV
attr interpolationmode none
attr recordingmode vector
attr source packetLength(packetDropReasonIsQueueOverflow(packetDropped))
attr title "dropped packet lengths: queue overflow"
attr unit b
vector 289 NetworkSlicing.router.ppp[2].queue flowQueueingTime:vector ETV
attr interpolationmode none
attr recordingmode vector
attr source queueingTime(demuxFlow(packetPulled))
attr title "flow queueing times"
attr unit s
vector 290 NetworkSlicing.router.ppp[2].queue flowIncomingDataRate:vector ETV
attr interpolationmode linear
attr recordingmode vector
attr source throughput(flowPacketLength(demuxFlow(packetPushStarted)))
attr title "flow specific incoming data rate"
attr unit bps
vector 291 NetworkSlicing.router.ppp[2].queue flowOutgoingDataRate:vector ETV
attr interpolationmode linear
attr recordingmode vector
attr source throughput(flowPacketLength(demuxFlow(packetPulled)))
attr title "flow specific outgoing data rate"
attr unit bps
vector 292 NetworkSlicing.router.ppp[2].ppp transmissionState:vector ETV
attr interpolationmode sample-hold
attr recordingmode vector
attr source transmissionStateChanged
attr title "tx state"
vector 293 NetworkSlicing.router.ppp[2].ppp txPk:vector(packetBytes) ETV
attr interpolationmode none
attr recordingmode vector(packetBytes)
attr source packetSentToLower
attr title "packets transmitted, packetBytes"
vector 294 NetworkSlicing.router.ppp[2].ppp rxPkOk:vector(packetBytes) ETV
attr interpolationmode none
attr recordingmode vector(packetBytes)
attr source rxPkOk
attr title "packets received OK, packetBytes"
vector 295 NetworkSlicing.router.ppp[2].ppp packetDropIncorrectlyReceived:vector(packetBytes) ETV
attr interpolationmode none
attr recordingmode vector(packetBytes)
attr source packetDropReasonIsIncorrectlyReceived(packetDropped)
attr title "packet drop: incorrectly received, packetBytes"
vector 296 NetworkSlicing.router.ppp[2].ppp packetDropInterfaceDown:vector(packetBytes) ETV
attr interpolationmode none
attr recordingmode vector(packetBytes)
attr source packetDropReasonIsInterfaceDown(packetDropped)
attr title "packet drop: interface down, packetBytes"
vector 297 NetworkSlicing.router.ppp[2].ppp rcvdPkFromHl:vector(packetBytes) ETV
attr interpolationmode none
attr recordingmode vector(packetBytes)
attr source packetReceivedFromUpper
attr title "packets received from higher layer, packetBytes"
vector 298 NetworkSlicing.router.ppp[2].ppp passedUpPk:vector(packetBytes) ETV
attr interpolationmode none
attr recordingmode vector(packetBytes)
attr source packetSentToUpper
attr title "packets passed to higher layer, packetBytes"
vector 299 NetworkSlicing.router.ppp[2] packetDropInterfaceDown:vector(packetBytes) ETV
attr interpolationmode none
attr recordingmode vector(packetBytes)
attr source packetDropReasonIsInterfaceDown(packetDropped)
attr title "packet drops: interface down, packetBytes"
vector 300 NetworkSlicing.router.ppp[2] packetDropNoCarrier:vector(packetBytes) ETV
attr interpolationmode none
attr recordingmode vector(packetBytes)
attr source packetDropReasonIsNoCarrier(packetDropped)
attr title "packet drops: no carrier, packetBytes"
vector 301 NetworkSlicing.router.ppp[3].queue queueLength:vector ETV
attr autoWarmupFilter false
attr interpolationmode sample-hold
attr recordingmode vector
attr source "warmup(atomic(constant0(packetPushEnded) + count(packetPushStarted) - count(packetPulled) - count(packetRemoved) - count(packetDropped)))"
attr title "queue length"
attr unit pk
vector 302 NetworkSlicing.router.ppp[3].queue queueBitLength:vector ETV
attr autoWarmupFilter false
attr interpolationmode sample-hold
attr recordingmode vector
attr source "warmup(atomic(constant0(packetPushEnded) + sum(packetLength(packetPushStarted)) - sum(packetLength(packetPulled)) - sum(packetLength(packetRemoved)) - sum(packetLength(packetDropped))))"
attr title "queue bit length"
attr unit b
vector 303 NetworkSlicing.router.ppp[3].queue queueingTime:vector ETV
attr interpolationmode none
attr recordingmode vector
attr source queueingTime(packetPulled)
attr title "queueing times"
attr unit s
vector 304 NetworkSlicing.router.ppp[3].queue incomingPacketLengths:vector ETV
attr interpolationmode none
attr recordingmode vector
attr source packetLength(packetPushStarted)
attr title "incoming packet lengths"
attr unit b
vector 305 NetworkSlicing.router.ppp[3].queue incomingDataRate:vector ETV
attr interpolationmode linear
attr recordingmode vector
attr source throughput(packetPushStarted)
attr title "incoming datarate"
attr unit bps
vector 306 NetworkSlicing.router.ppp[3].queue outgoingPacketLengths:vector ETV
attr interpolationmode none
attr recordingmode vector
attr source packetLength(packetPulled)
attr title "outgoing packet lengths"
attr unit b
vector 307 NetworkSlicing.router.ppp[3].queue outgoingDataRate:vector ETV
attr interpolationmode linear
attr recordingmode vector
attr source throughput(packetPulled)
attr title "outgoing datarate"
attr unit bps
vector 308 NetworkSlicing.router.ppp[3].queue droppedPacketLengthsQueueOverflow:vector ETV
attr interpolationmode none
attr recordingmode vector
[...]
389	461672145 1212416 325418599 328403621 1357.6060044976 1370.0570066752 32768 357102 360529 11757456700 4.2187119236069e+15
429	462884561 1103431 306394616 329961126 1278.2540061384 1376.5540061384 32768 292 292 9568256 2793930752
427	463987992 1460603 306394616 329961126 1278.2540061384 1376.5540061384 32768 0.014006959727 0.014748891162 470.6566927704 6.7619906477644
430	465448595 1168967 306394616 329961126 1278.2540061384 1376.5540061384 32768 42592 45884 1449535085 64151390269623
388	466617562 1146880 328403846 331389032 1370.0580044976 1382.5100055864 32768 1290 1290 42270720 54529228800
386	467764442 1471284 328403846 331389032 1370.0580044976 1382.5100055864 32768 0.010009824736 0.02098498335 508.92659440918 8.2344420103304
389	469235726 1212416 328403846 331389032 1370.0580044976 1382.5100055864 32768 360379 363808 11864830853 4.2961174149075e+15
388	470448142 1146880 331389037 334374273 1382.5100066752 1394.9620044976 32768 1290 1290 42270720 54529228800
386	471595022 1471283 331389037 334374273 1382.5100066752 1394.9620044976 32768 0.010009824736 0.02098498335 508.93887633132 8.2348858945674
389	473066305 1212416 331389037 334374273 1382.5100066752 1394.9620044976 32768 363656 367084 11972204904 4.3742265181841e+15
388	474278721 1146880 334374278 337359481 1394.9620055864 1407.4140044976 32768 1290 1290 42270720 54529228800
386	475425601 1471283 334374278 337359481 1394.9620055864 1407.4140044976 32768 0.010009824736 0.02098498335 508.94287263183 8.2349871981149
389	476896884 1212416 334374278 337359481 1394.9620055864 1407.4140044976 32768 366933 370360 12079579006 4.4530393440972e+15
388	478109300 1146880 337359496 340344554 1407.4140055864 1419.8650055864 32768 1290 1290 42270720 54529228800
386	479256180 1471283 337359496 340344554 1407.4140055864 1419.8650055864 32768 0.010009824736 0.02098498335 508.92280256902 8.234342103183
389	480727463 1212416 337359496 340344554 1407.4140055864 1419.8650055864 32768 370210 373636 12186953180 4.5325559096633e+15
388	481939879 1146880 340344559 343329808 1419.8650066752 1432.3170044976 32768 1290 1290 42270720 54529228800
386	483086759 1471283 340344559 343329808 1419.8650066752 1432.3170044976 32768 0.010009824736 0.02098498335 508.91541267374 8.234125115624
389	484558042 1212416 340344559 343329808 1419.8650066752 1432.3170044976 32768 373487 376913 12294327514 4.612776283095e+15
388	485770458 1146880 343329817 346314997 1432.3170055864 1444.7690044976 32768 1290 1290 42270720 54529228800
386	486917338 1471283 343329817 346314997 1432.3170055864 1444.7690044976 32768 0.010009824736 0.02098498335 508.89421171689 8.233455659502
389	488388621 1212416 343329817 346314997 1432.3170055864 1444.7690044976 32768 376763 380190 12401701794 4.6937003058968e+15
388	489601037 1146880 346315006 349300301 1444.7690055864 1457.2210044976 32768 1290 1290 42270720 54529228800
386	490747917 1471284 346315006 349300301 1444.7690055864 1457.2210044976 32768 0.010009824736 0.02098498335 508.90144466714 8.2337064222373
389	492219201 1212416 346315006 349300301 1444.7690055864 1457.2210044976 32768 380040 383467 12509075919 4.7753278992132e+15
388	493431617 1146880 349300306 352285476 1457.2210055864 1469.6730055864 32768 1290 1290 42270720 54529228800
386	494578497 1471283 349300306 352285476 1457.2210055864 1469.6730055864 32768 0.010009824736 0.02098498335 508.94206213734 8.2349646080156
389	496049780 1212416 349300306 352285476 1457.2210055864 1469.6730055864 32768 383317 386744 12616450000 4.8576591448054e+15
429	497262196 1103433 329961375 353528608 1376.5550061384 1474.8580050496 32768 292 292 9568256 2793930752
427	498365629 1460604 329961375 353528608 1376.5550061384 1474.8580050496 32768 0.014006959727 0.014748891162 470.65643845424 6.7619831769379
430	499826233 1168969 329961375 353528608 1376.5550061384 1474.8580050496 32768 45869 49161 1556909256 74002906046170
388	500995202 1146880 352285481 355270801 1469.6730066752 1482.1250055864 32768 1290 1290 42270720 54529228800
386	502142082 1471283 352285481 355270801 1469.6730066752 1482.1250055864 32768 0.010009824736 0.02098498335 508.93787263182 8.2348109044665
389	503613365 1212416 352285481 355270801 1469.6730066752 1482.1250055864 32768 386594 390020 12723824101 4.9406940914485e+15
388	504825781 1146880 355270815 358255733 1482.1250066752 1494.5760066752 32768 1290 1290 42270720 54529228800
386	505972661 1471283 355270815 358255733 1482.1250066752 1494.5760066752 32768 0.010009824736 0.02098498335 508.92976868263 8.2345859692056
389	507443944 1212416 355270815 358255733 1482.1250066752 1494.5760066752 32768 389871 393297 12831198303 5.0244328033667e+15
388	508656360 1146880 358255970 361241086 1494.5770044976 1507.0280055864 32768 1290 1290 42270720 54529228800
386	509803240 1471283 358255970 361241086 1494.5770044976 1507.0280055864 32768 0.010009824736 0.02098498335 508.91763454374 8.2341791239125
389	511274523 1212416 358255970 361241086 1494.5770044976 1507.0280055864 32768 393148 396574 12938572582 5.1088752641635e+15
388	512486939 1146880 361241091 364226078 1507.0280066752 1519.4790066752 32768 1290 1290 42270720 54529228800
386	513633819 1471283 361241091 364226078 1507.0280066752 1519.4790066752 32768 0.010009824736 0.02098498335 508.90181460025 8.2337343256404
389	515105102 1212416 361241091 364226078 1507.0280066752 1519.4790066752 32768 396424 399851 13045946617 5.1940212192177e+15
388	516317518 1146880 364226300 367211566 1519.4800044976 1531.9320044976 32768 1290 1290 42270720 54529228800
386	517464398 1471284 364226300 367211566 1519.4800044976 1531.9320044976 32768 0.010009824736 0.02098498335 508.90940924426 8.2339192276015
389	518935682 1212416 364226300 367211566 1519.4800044976 1531.9320044976 32768 399701 403128 13153321172 5.2798712779978e+15
388	520148098 1146880 367211575 370196746 1531.9320055864 1544.3840055864 32768 1290 1290 42270720 54529228800
386	521294978 1471283 367211575 370196746 1531.9320055864 1544.3840055864 32768 0.010009824736 0.02098498335 508.91187280685 8.2340050521759
389	522766261 1212416 367211575 370196746 1531.9320055864 1544.3840055864 32768 402978 406405 13260695234 5.3664246309002e+15
388	523978677 1146880 370196975 373182069 1544.3850044976 1556.8360055864 32768 1290 1290 42270720 54529228800
386	525125557 1471283 370196975 373182069 1544.3850044976 1556.8360055864 32768 0.010009824736 0.02098498335 508.94486061545 8.2350675795717
389	526596840 1212416 370196975 373182069 1544.3850044976 1556.8360055864 32768 406255 409682 13368069196 5.453681586945e+15
388	527809256 1146880 373182074 376167231 1556.8360066752 1569.2880044976 32768 1290 1290 42270720 54529228800
386	528956136 1471283 373182074 376167231 1556.8360066752 1569.2880044976 32768 0.010009824736 0.02098498335 508.93822443903 8.2348404802007
389	530427419 1212416 373182074 376167231 1556.8360066752 1569.2880044976 32768 409532 412958 13475443344 5.5416423796943e+15
429	531639835 1103438 353529035 377095802 1474.8600061384 1573.1610061384 32768 292 292 9568256 2793930752
427	532743273 1460609 353529035 377095802 1474.8600061384 1573.1610061384 32768 0.014006959727 0.014748891162 470.65682520061 6.7619942827424
430	534203882 1168974 353529035 377095802 1474.8600061384 1573.1610061384 32768 49146 52438 1664283444 84558110822866
388	535372856 1146880 376167240 379152318 1569.2880055864 1581.7390066752 32768 1290 1290 42270720 54529228800
386	536519736 1471283 376167240 379152318 1569.2880055864 1581.7390066752 32768 0.010009824736 0.02098498335 508.91983672134 8.2342440866498
389	537991019 1212416 376167240 379152318 1569.2880055864 1581.7390066752 32768 412809 416235 13582817678 5.6303070140248e+15
388	539203435 1146880 379152593 382137575 1581.7400044976 1594.1910044976 32768 1290 1290 42270720 54529228800
386	540350315 1471283 379152593 382137575 1581.7400044976 1594.1910044976 32768 0.010009824736 0.02098498335 508.90791620723 8.23391175484
389	541821598 1212416 379152593 382137575 1581.7400044976 1594.1910044976 32768 416085 419512 13690191941 5.7196752792249e+15
388	543034014 1146880 382137590 385122806 1594.1910055864 1606.6430044976 32768 1290 1290 42270720 54529228800
386	544180894 1471283 382137590 385122806 1594.1910055864 1606.6430044976 32768 0.010009824736 0.02098498335 508.90021171688 8.2336471185526
389	545652177 1212416 382137590 385122806 1594.1910055864 1606.6430044976 32768 419362 422789 13797566164 5.8097471996227e+15
388	546864593 1146880 385122815 388108052 1606.6430055864 1619.0950044976 32768 1290 1290 42270720 54529228800
386	548011473 1471284 385122815 388108052 1606.6430055864 1619.0950044976 32768 0.010009824736 0.02098498335 508.91844466714 8.2342269084264
389	549482757 1212416 385122815 388108052 1606.6430055864 1619.0950044976 32768 422639 426066 13904940289 5.900522724776e+15
388	550695173 1146880 388108061 391093300 1619.0950055864 1631.5470055864 32768 1290 1290 42270720 54529228800
386	551842053 1471283 388108061 391093300 1619.0950055864 1631.5470055864 32768 0.010009824736 0.02098498335 508.92578728624 8.2344573352139
389	553313336 1212416 388108061 391093300 1619.0950055864 1631.5470055864 32768 425916 429343 14012314285 5.9920018254809e+15
511	554525752 1107111 262065827 392994877 1093.3510064904 1639.4790056632 32768 512 512 16777216 8589934592
509	555632863 1467559 262065827 392994877 1093.3510064904 1639.4790056632 32768 0.014329878771 0.014747054129 475.08759109968 6.888975005106
512	557100422 1172647 262065827 392994877 1093.3510064904 1639.4790056632 32768 10917 16389 447376043 6189396393345
388	558273069 1146880 391093305 394078501 1631.5470066752 1643.9990055864 32768 1290 1290 42270720 54529228800
386	559419949 1471283 391093305 394078501 1631.5470066752 1643.9990055864 32768 0.010009824736 0.02098498335 508.94387263183 8.2349989152298
389	560891232 1212416 391093305 394078501 1631.5470066752 1643.9990055864 32768 429193 432619 14119688471 6.0841847743348e+15
388	562103648 1146880 394078506 397063575 1643.9990066752 1656.4500066752 32768 1290 1290 42270720 54529228800
386	563250528 1471283 394078506 397063575 1643.9990066752 1656.4500066752 32768 0.010009824736 0.02098498335 508.92371838483 8.234394505403
389	564721811 1212416 394078506 397063575 1643.9990066752 1656.4500066752 32768 432470 435896 14227062855 6.1770715832901e+15
388	565934227 1146880 397063844 400048910 1656.4510044976 1668.9020055864 32768 1290 1290 42270720 54529228800
386	567081107 1471283 397063844 400048910 1656.4510044976 1668.9020055864 32768 0.010009824736 0.02098498335 508.92165775364 8.2343186774242
389	568552390 1212416 397063844 400048910 1656.4510044976 1668.9020055864 32768 435747 439173 14334437103 6.2706619642048e+15
429	569764806 1103431 377096484 400663276 1573.1640061384 1671.4650061384 32768 292 292 9568256 2793930752
427	570868237 1460602 377096484 400663276 1573.1640061384 1671.4650061384 32768 0.014006959727 0.014748891162 470.65675976945 6.761992384984
430	572328839 1168967 377096484 400663276 1573.1640061384 1671.4650061384 32768 52422 55715 1771657630 95817002928728
388	573497806 1146880 400048924 403034100 1668.9020066752 1681.3540055864 32768 1290 1290 42270720 54529228800
386	574644686 1471283 400048924 403034100 1668.9020066752 1681.3540055864 32768 0.010009824736 0.02098498335 508.89901171688 8.2336010158489
389	576115969 1212416 400048924 403034100 1668.9020066752 1681.3540055864 32768 439022 442450 14441811258 6.3649559515807e+15
388	577328385 1146880 403034114 406019292 1681.3540066752 1693.8060055864 32768 1290 1290 42270720 54529228800
386	578475265 1471284 403034114 406019292 1681.3540066752 1693.8060055864 32768 0.010009824736 0.02098498335 508.90624466714 8.2338460185841
389	579946549 1212416 403034114 406019292 1681.3540066752 1693.8060055864 32768 442299 445727 14549185383 6.4599535991224e+15
388	581158965 1146880 406019297 409004601 1693.8060066752 1706.2580055864 32768 1290 1290 42270720 54529228800
386	582305845 1471283 406019297 409004601 1693.8060066752 1706.2580055864 32768 0.010009824736 0.02098498335 508.92458837504 8.2344199866337
389	583777128 1212416 406019297 409004601 1693.8060066752 1706.2580055864 32768 445576 449004 14656559379 6.555654817143e+15
388	584989544 1146880 409004606 411989755 1706.2580066752 1718.7100066752 32768 1290 1290 42270720 54529228800
386	586136424 1471283 409004606 411989755 1706.2580066752 1718.7100066752 32768 0.010009824736 0.02098498335 508.93310131422 8.234664250764
389	587607707 1212416 409004606 411989755 1706.2580066752 1718.7100066752 32768 448853 452280 14763933533 6.6520598618466e+15
388	588820123 1146880 411989973 414974986 1718.7110044976 1731.1620044976 32768 1290 1290 42270720 54529228800
386	589967003 1471283 411989973 414974986 1718.7110044976 1731.1620044976 32768 0.010009824736 0.02098498335 508.94505884244 8.2350588053763
389	591438286 1212416 411989973 414974986 1718.7110044976 1731.1620044976 32768 452131 455557 14871308015 6.7491688922181e+15
388	592650702 1146880 414974995 417960038 1731.1620055864 1743.6130055864 32768 1290 1290 42270720 54529228800
386	593797582 1471283 414974995 417960038 1731.1620055864 1743.6130055864 32768 0.010009824736 0.02098498335 508.91507034966 8.2341205736671
389	595268865 1212416 414974995 417960038 1731.1620055864 1743.6130055864 32768 455406 458834 14978682161 6.8469813076478e+15
388	596481281 1146880 417960043 420945345 1743.6130066752 1756.0650044976 32768 1290 1290 42270720 54529228800
386	597628161 1471283 417960043 420945345 1743.6130066752 1756.0650044976 32768 0.010009824736 0.02098498335 508.90486926086 8.23380899061
389	599099444 1212416 417960043 420945345 1743.6130066752 1756.0650044976 32768 458682 462111 15086056345 6.945497444914e+15
388	600311860 1146880 420945366 423930553 1756.0650055864 1768.5170055864 32768 1290 1290 42270720 54529228800
386	601458740 1471284 420945366 423930553 1756.0650055864 1768.5170055864 32768 0.010009824736 0.02098498335 508.91017670474 8.2339320347348
389	602930024 1212416 420945366 423930553 1756.0650055864 1768.5170055864 32768 461958 465388 15193430524 7.0447172650011e+15
429	604142440 1103435 400663281 424230772 1671.4650064 1769.769001304 32768 292 292 9568256 2793930752
427	605245875 1460606 400663281 424230772 1671.4650064 1769.769001304 32768 0.014006959727 0.014748891162 470.65675623381 6.761992439662
430	606706481 1168971 400663281 424230772 1671.4650064 1769.769001304 32768 55699 58991 1879031801 1.0777958077754e+14
388	607875452 1146880 423930558 426915778 1768.5170066752 1780.9690055864 32768 1290 1290 42270720 54529228800
386	609022332 1471283 423930558 426915778 1768.5170066752 1780.9690055864 32768 0.010009824736 0.02098498335 508.90922200336 8.2339728106697
389	610493615 1212416 423930558 426915778 1768.5170066752 1780.9690055864 32768 465235 468665 15300804584 7.1446406609416e+15
388	611706031 1146880 426915783 429901007 1780.9690066752 1793.4210066752 32768 1290 1290 42270720 54529228800
386	612852911 1471283 426915783 429901007 1780.9690066752 1793.4210066752 32768 0.010009824736 0.02098498335 508.93407887942 8.2346890284993
389	614324194 1212416 426915783 429901007 1780.9690066752 1793.4210066752 32768 468512 471942 15408178667 7.2452677636163e+15
386	615536610 777264 429901211 431478078 1793.4220044976 1799.9990066752 17311 0.010009824736 0.02098498335 268.84772376635 4.3497906924096
388	616313874 605885 429901211 431478078 1793.4220044976 1799.9990066752 17311 1290 1290 22331190 28807235100
389	616919759 640507 429901211 431478078 1793.4220044976 1799.9990066752 17311 471789 473673 8183329540 3.8684627210201e+15
427	617560266 449135 424231984 431477867 1769.7740061384 1799.9980061384 10076 0.014006959727 0.014748891162 144.72437027584 2.0792715212258
429	618009401 339306 424231984 431477867 1769.7740061384 1799.9980061384 10076 292 292 2942192 859120064
430	618348707 359458 424231984 431477867 1769.7740061384 1799.9980061384 10076 58976 59999 599377915 35655267660699
468	618708165 94482 233817 431450111 1.2020057464 1799.8820046576 2160 0.008005910756 0.008726312475 17.99518027236 0.1501021118883
470	618802647 68922 233817 431450111 1.2020057464 1799.8820046576 2160 47 47 101520 4771440
471	618871569 70422 233817 431450111 1.2020057464 1799.8820046576 2160 0 359 387720 92923560
509	618941991 431339 392998944 431477486 1639.496002008 1799.9960064904 9631 0.014329878771 0.014747054129 139.63512767802 2.0247674845118
511	619373330 325398 392998944 431477486 1639.496002008 1799.9960064904 9631 512 512 4931072 2524708864
512	619698728 344660 392998944 431477486 1639.496002008 1799.9960064904 9631 16378 17994 165519163 2846694084319
651	620043388 29 431478283 431478283 1800 1800 1 339375.35 339375.35 339375.35 115175628187.62
791	620043417 35 431478283 431478283 1800 1800 1 339359.58333333 339359.58333333 339359.58333333 115164926800.17
931	620043452 35 431478283 431478283 1800 1800 1 339365.31666667 339365.31666667 339365.31666667 115168818156.27
1071	620043487 30 431478283 431478283 1800 1800 1 339444.15 339444.15 339444.15 115222330969.22
1211	620043517 36 431478283 431478283 1800 1800 1 339393.26666667 339393.26666667 339393.26666667 115187789458.67
1351	620043553 36 431478283 431478283 1800 1800 1 339449.16666667 339449.16666667 339449.16666667 115225736750.69
1491	620043589 36 431478283 431478283 1800 1800 1 339469.23333333 339469.23333333 339469.23333333 115239360379.92
1631	620043625 36 431478283 431478283 1800 1800 1 339386.81666667 339386.81666667 339386.81666667 115183411327.13
1771	620043661 36 431478283 431478283 1800 1800 1 339384.66666667 339384.66666667 339384.66666667 115181951968.44
1911	620043697 36 431478283 431478283 1800 1800 1 339467.08333333 339467.08333333 339467.08333333 115237900666.84
2051	620043733 36 431478283 431478283 1800 1800 1 9732.5222222222 9732.5222222222 9732.5222222222 94721988.806049
2191	620043769 36 431478283 431478283 1800 1800 1 9731.0622222222 9731.0622222222 9731.0622222222 94693571.97276
2331	620043805 36 431478283 431478283 1800 1800 1 9732.6844444444 9732.6844444444 9732.6844444444 94725146.495131
2471	620043841 36 431478283 431478283 1800 1800 1 9731.2244444444 9731.2244444444 9731.2244444444 94696729.188153
2611	620043877 36 431478283 431478283 1800 1800 1 9731.8733333333 9731.8733333333 9731.8733333333 94709358.576044
2751	620043913 36 431478283 431478283 1800 1800 1 9733.3333333333 9733.3333333333 9733.3333333333 94737777.777778
2891	620043949 36 431478283 431478283 1800 1800 1 9731.3866666667 9731.3866666667 9731.3866666667 94699886.456178
3031	620043985 36 431478283 431478283 1800 1800 1 9731.3866666667 9731.3866666667 9731.3866666667 94699886.456178
3171	620044021 36 431478283 431478283 1800 1800 1 9730.7377777778 9730.7377777778 9730.7377777778 94687257.699872
3311	620044057 36 431478283 431478283 1800 1800 1 9731.7111111111 9731.7111111111 9731.7111111111 94706201.150123
3451	620044093 24 431478283 431478283 1800 1800 1 9.4 9.4 9.4 88.36
3591	620044117 24 431478283 431478283 1800 1800 1 9.4 9.4 9.4 88.36
3731	620044141 24 431478283 431478283 1800 1800 1 9.4 9.4 9.4 88.36
3871	620044165 24 431478283 431478283 1800 1800 1 9.4 9.4 9.4 88.36
4011	620044189 24 431478283 431478283 1800 1800 1 9.4 9.4 9.4 88.36
4151	620044213 24 431478283 431478283 1800 1800 1 9.4 9.4 9.4 88.36
4291	620044237 36 431478283 431478283 1800 1800 1 5115.7333333333 5115.7333333333 5115.7333333333 26170727.537778
4431	620044273 36 431478283 431478283 1800 1800 1 5118.5777777778 5118.5777777778 5118.5777777778 26199838.46716
4571	620044309 36 431478283 431478283 1800 1800 1 5117.1555555556 5117.1555555556 5117.1555555556 26185280.979753
4711	620044345 36 431478283 431478283 1800 1800 1 5118.0088888889 5118.0088888889 5118.0088888889 26194014.986746
4851	620044381 36 431478283 431478283 1800 1800 1 5116.8711111111 5116.8711111111 5116.8711111111 26182369.967723
4991	620044417 36 431478283 431478283 1800 1800 1 5115.4488888889 5115.4488888889 5115.4488888889 26167817.334835

