file 678531717 1770652813                                       
version 3
run OverloadEmbb-0-20260209-16:39:06-132
attr configname OverloadEmbb
attr datetime 20260209-16:39:06
attr datetimef 20260209-163906
attr experiment OverloadEmbb
attr inifile omnetpp.ini
attr iterationvars ""
attr iterationvarsd ""
attr iterationvarsf ""
attr measurement ""
attr network NetworkSlicing
attr processid 132
attr repetition 0
attr replication #0
attr resultdir results
attr runnumber 0
attr seedset 0
config *.numEmbbUes 12
config *.numUrllcUes 4
config *.numMmtcUes 2
config *.numBestEffortUes 2
config sim-time-limit 1800s
config *.ueEmbb[*].app[0].packetSize 1290B
config *.ueEmbb[*].app[0].samplingTime 0.0038s
config *.ueUrllc[*].app[0].packetSize 292B
config *.ueUrllc[*].app[0].samplingTime 0.030s
config *.ueMmtc[*].app[0].packetSize 47B
config *.ueMmtc[*].app[0].samplingTime 5s
config network NetworkSlicing
config sim-time-limit 300s
config seed-set 0
config *.configurator.config "xml(\"<config><interface among='gnb iUpf upf router' address='10.x.x.x' netmask='255.255.255.0'/><interface hosts='*' address='192.168.x.x' netmask='255.255.255.0'/></config>\")"
config output-vector-file results/OverloadEmbb-0.vec
config output-scalar-file results/OverloadEmbb-0.sca
config **.mac.receivedPacketFromLowerLayer.result-recording-modes -
config **.mac.receivedPacketFromUpperLayer.result-recording-modes -
config **.mac.sentPacketToLowerLayer.result-recording-modes -
config **.mac.sentPacketToUpperLayer.result-recording-modes -
config **.app[*].**.vector-recording true
config **.app[*].**.scalar-recording true
config **.vector-recording false
config **.scalar-recording true
config **.cbrFrameDelay.vector-recording true
config **.cbrJitter.vector-recording true
config **.cbrFrameLoss.vector-recording true
config **.cbrRcvdPkt.vector-recording true
config **.cbrSentPkt.vector-recording true
config **.cbrGeneratedThroughput.vector-recording true
config **.cbrFrameDelay.result-recording-modes +vector
config **.cbrJitter.result-recording-modes +vector
config **.numBands 50
config **.ueTxPower 26dBm
config **.eNodeBTxPower 40dBm
config **.targetBler 0.01
config **.blerShift 5
config *.gnb.cellularNic.phy.carrierFrequency 3.5GHz
config *.gnb.cellularNic.mac.schedulingDisciplineDl "\"MAXCI\""
config *.gnb.cellularNic.mac.schedulingDisciplineUl "\"MAXCI\""
config **.mobility.constraintAreaMaxX 1000m
config **.mobility.constraintAreaMaxY 1000m
config **.mobility.constraintAreaMinX 0m
config **.mobility.constraintAreaMinY 0m
config **.mobility.constraintAreaMinZ 0m
config **.mobility.constraintAreaMaxZ 0m
config **.mobility.initFromDisplayString false
config *.gnb.mobility.initialX 500m
config *.gnb.mobility.initialY 500m
config *.ueEmbb[*].mobility.initialX "uniform(400m, 600m)"
config *.ueEmbb[*].mobility.initialY "uniform(400m, 600m)"
config *.ueUrllc[*].mobility.initialX "uniform(450m, 550m)"
config *.ueUrllc[*].mobility.initialY "uniform(450m, 550m)"
config *.ueMmtc[*].mobility.initialX "uniform(350m, 650m)"
config *.ueMmtc[*].mobility.initialY "uniform(350m, 650m)"
config *.ueBestEffort[*].mobility.initialX "uniform(400m, 600m)"
config *.ueBestEffort[*].mobility.initialY "uniform(400m, 600m)"
config *.gnb.cellularNic.mac.qosHandler.slicing true
config *.ueEmbb[*].macCellId 0
config *.ueEmbb[*].masterId 0
config *.ueEmbb[*].nrMacCellId 1
config *.ueEmbb[*].nrMasterId 1
config *.ueUrllc[*].macCellId 0
config *.ueUrllc[*].masterId 0
config *.ueUrllc[*].nrMacCellId 1
config *.ueUrllc[*].nrMasterId 1
config *.ueMmtc[*].macCellId 0
config *.ueMmtc[*].masterId 0
config *.ueMmtc[*].nrMacCellId 1
config *.ueMmtc[*].nrMasterId 1
config *.ueBestEffort[*].macCellId 0
config *.ueBestEffort[*].masterId 0
config *.ueBestEffort[*].nrMacCellId 1
config *.ueBestEffort[*].nrMasterId 1
config *.gnb.cellularNic.mac.sliceConfig "xmldoc(\"sliceConfig.xml\")"
config *.ueEmbb[*].numApps 1
config *.ueEmbb[*].app[0].typename simu5g.apps.cbr.CbrSender
config *.ueEmbb[*].app[0].destAddress "\"serverEmbb\""
config *.ueEmbb[*].app[0].destPort 49005
config *.ueEmbb[*].app[0].packetSize 1400B
config *.ueEmbb[*].app[0].samplingTime 0.001s
config *.ueEmbb[*].app[0].startTime "uniform(0s, 1s)"
config *.ueEmbb[*].app[0].finishTime 0s
config *.serverEmbb.numApps 1
config *.serverEmbb.app[0].typename simu5g.apps.cbr.CbrReceiver
config *.serverEmbb.app[0].localPort 49005
config *.ueUrllc[*].numApps 1
config *.ueUrllc[*].app[0].typename simu5g.apps.cbr.CbrSender
config *.ueUrllc[*].app[0].destAddress "\"serverUrllc\""
config *.ueUrllc[*].app[0].destPort 49003
config *.ueUrllc[*].app[0].packetSize 200B
config *.ueUrllc[*].app[0].samplingTime 0.005s
config *.ueUrllc[*].app[0].startTime "uniform(0s, 0.5s)"
config *.ueUrllc[*].app[0].finishTime 0s
config *.serverUrllc.numApps 1
config *.serverUrllc.app[0].typename simu5g.apps.cbr.CbrReceiver
config *.serverUrllc.app[0].localPort 49003
config *.ueMmtc[*].numApps 1
config *.ueMmtc[*].app[0].typename simu5g.apps.cbr.CbrSender
config *.ueMmtc[*].app[0].destAddress "\"serverMmtc\""
config *.ueMmtc[*].app[0].destPort 8443
config *.ueMmtc[*].app[0].packetSize 100B
config *.ueMmtc[*].app[0].samplingTime 1s
config *.ueMmtc[*].app[0].startTime "uniform(0s, 5s)"
config *.ueMmtc[*].app[0].finishTime 0s
config *.serverMmtc.numApps 1
config *.serverMmtc.app[0].typename simu5g.apps.cbr.CbrReceiver
config *.serverMmtc.app[0].localPort 8443
config *.ueBestEffort[*].numApps 1
config *.ueBestEffort[*].app[0].typename simu5g.apps.cbr.CbrSender
config *.ueBestEffort[*].app[0].destAddress "\"serverBestEffort\""
config *.ueBestEffort[*].app[0].destPort 5000
config *.ueBestEffort[*].app[0].packetSize 512B
config *.ueBestEffort[*].app[0].samplingTime 0.1s
config *.ueBestEffort[*].app[0].startTime "uniform(0s, 2s)"
config *.ueBestEffort[*].app[0].finishTime 0s
config *.serverBestEffort.numApps 1
config *.serverBestEffort.app[0].typename simu5g.apps.cbr.CbrReceiver
config *.serverBestEffort.app[0].localPort 5000

vector 0 NetworkSlicing.gnb.cellularNic.pdcp receivedPacketFromUpperLayer:vector(packetBytes) ETV
attr interpolationmode none
attr recordingmode vector(packetBytes)
attr source receivedPacketFromUpperLayer
vector 1 NetworkSlicing.gnb.cellularNic.pdcp receivedPacketFromLowerLayer:vector(packetBytes) ETV
attr interpolationmode none
attr recordingmode vector(packetBytes)
attr source receivedPacketFromLowerLayer
vector 2 NetworkSlicing.gnb.cellularNic.pdcp sentPacketToUpperLayer:vector(packetBytes) ETV
attr interpolationmode none
attr recordingmode vector(packetBytes)
attr source sentPacketToUpperLayer
vector 3 NetworkSlicing.gnb.cellularNic.pdcp sentPacketToLowerLayer:vector(packetBytes) ETV
attr interpolationmode none
attr recordingmode vector(packetBytes)
attr source sentPacketToLowerLayer
vector 4 NetworkSlicing.gnb.cellularNic.rlc.tm rlcPacketLossUl:vector ETV
attr recordingmode vector
attr source rlcPacketLossUl
attr title "rlc Packet Loss"
attr unit ""
vector 5 NetworkSlicing.gnb.cellularNic.rlc.tm rlcPacketLossDl:vector ETV
attr recordingmode vector
attr source rlcPacketLossDl
attr title "rlc Packet Loss"
attr unit ""
vector 6 NetworkSlicing.gnb.cellularNic.rlc.tm receivedPacketFromUpperLayer:vector(packetBytes) ETV
attr interpolationmode none
attr recordingmode vector(packetBytes)
attr source receivedPacketFromUpperLayer
vector 7 NetworkSlicing.gnb.cellularNic.rlc.tm receivedPacketFromLowerLayer:vector(packetBytes) ETV
attr interpolationmode none
attr recordingmode vector(packetBytes)
attr source receivedPacketFromLowerLayer
vector 8 NetworkSlicing.gnb.cellularNic.rlc.tm sentPacketToUpperLayer:vector(packetBytes) ETV
attr interpolationmode none
attr recordingmode vector(packetBytes)
attr source sentPacketToUpperLayer
vector 9 NetworkSlicing.gnb.cellularNic.rlc.tm sentPacketToLowerLayer:vector(packetBytes) ETV
attr interpolationmode none
attr recordingmode vector(packetBytes)
attr source sentPacketToLowerLayer
vector 10 NetworkSlicing.gnb.cellularNic.rlc.um rlcDelayDl:vector ETV
attr recordingmode vector
attr source rlcDelayDl
attr title "Delay at the rlc layer DL"
attr unit s
vector 11 NetworkSlicing.gnb.cellularNic.rlc.um rlcThroughputDl:vector ETV
attr recordingmode vector
attr source rlcThroughputDl
attr title "Throughput at the rlc layer DL"
attr unit Bps
vector 12 NetworkSlicing.gnb.cellularNic.rlc.um rlcDelayUl:vector ETV
attr recordingmode vector
attr source rlcDelayUl
attr title "Delay at the rlc layer UL"
attr unit s
vector 13 NetworkSlicing.gnb.cellularNic.rlc.um rlcThroughputUl:vector ETV
attr recordingmode vector
attr source rlcThroughputUl
attr title "Throughput at the rlc layer UL"
attr unit Bps
vector 14 NetworkSlicing.gnb.cellularNic.rlc.um rlcPduDelayDl:vector ETV
attr recordingmode vector
attr source rlcPduDelayDl
attr title "Delay at the rlc layer UL"
attr unit s
vector 15 NetworkSlicing.gnb.cellularNic.rlc.um rlcPduThroughputDl:vector ETV
attr recordingmode vector
attr source rlcPduThroughputDl
attr title "Throughput at the rlc layer DL"
attr unit Bps
vector 16 NetworkSlicing.gnb.cellularNic.rlc.um rlcPduDelayUl:vector ETV
attr recordingmode vector
attr source rlcPduDelayUl
attr title "Delay at the rlc layer UL"
attr unit s
vector 17 NetworkSlicing.gnb.cellularNic.rlc.um rlcPduThroughputUl:vector ETV
attr recordingmode vector
attr source rlcPduThroughputUl
attr title "Throughput at the rlc layer UL"
attr unit Bps
vector 18 NetworkSlicing.gnb.cellularNic.rlc.um receivedPacketFromUpperLayer:vector(packetBytes) ETV
attr interpolationmode none
attr recordingmode vector(packetBytes)
attr source receivedPacketFromUpperLayer
vector 19 NetworkSlicing.gnb.cellularNic.rlc.um receivedPacketFromLowerLayer:vector(packetBytes) ETV
attr interpolationmode none
attr recordingmode vector(packetBytes)
attr source receivedPacketFromLowerLayer
vector 20 NetworkSlicing.gnb.cellularNic.rlc.um sentPacketToUpperLayer:vector(packetBytes) ETV
attr interpolationmode none
attr recordingmode vector(packetBytes)
attr source sentPacketToUpperLayer
vector 21 NetworkSlicing.gnb.cellularNic.rlc.um sentPacketToLowerLayer:vector(packetBytes) ETV
attr interpolationmode none
attr recordingmode vector(packetBytes)
attr source sentPacketToLowerLayer
vector 22 NetworkSlicing.gnb.cellularNic.rlc.um rlcDelayD2D:vector ETV
attr recordingmode vector
attr source rlcDelayD2D
attr title "Delay at the rlc layer D2D"
attr unit s
vector 23 NetworkSlicing.gnb.cellularNic.rlc.um rlcThroughputD2D:vector ETV
attr recordingmode vector
attr source rlcThroughputD2D
attr title "Throughput at the rlc layer D2D"
attr unit Bps
vector 24 NetworkSlicing.gnb.cellularNic.rlc.um rlcCellThroughputD2D:vector ETV
attr recordingmode vector
attr source rlcCellThroughputD2D
attr title "Cell Throughput at the rlc layer D2D"
attr unit Bps
vector 25 NetworkSlicing.gnb.cellularNic.rlc.um rlcPduDelayD2D:vector ETV
attr recordingmode vector
attr source rlcPduDelayD2D
attr title "Delay at the rlc layer D2D"
attr unit s
vector 26 NetworkSlicing.gnb.cellularNic.rlc.um rlcPduThroughputD2D:vector ETV
attr recordingmode vector
attr source rlcPduThroughputD2D
attr title "Throughput at the rlc layer D2D"
attr unit Bps
vector 27 NetworkSlicing.gnb.cellularNic.mac macDelayDl:vector ETV
attr recordingmode vector
attr source macDelayDl
attr title "Delay at the MAC layer UL"
attr unit s
vector 28 NetworkSlicing.gnb.cellularNic.mac macDelayUl:vector ETV
attr recordingmode vector
attr source macDelayUl
attr title "Delay at the MAC layer UL"
attr unit s
vector 29 NetworkSlicing.gnb.cellularNic.mac harqErrorRateUl:vector ETV
attr recordingmode vector
attr source harqErrorRateUl
attr title "Harq Error Rate Ul"
attr unit ""
vector 30 NetworkSlicing.gnb.cellularNic.mac harqErrorRateDl:vector ETV
attr recordingmode vector
attr source harqErrorRateDl
attr title "Harq Error Rate Dl"
attr unit ""
vector 31 NetworkSlicing.gnb.cellularNic.mac harqTxAttemptsDl:vector ETV
attr recordingmode vector
attr source harqTxAttemptsDl
attr title "Harq Tx Attempts Dl"
attr unit ""
vector 32 NetworkSlicing.gnb.cellularNic.mac harqTxAttemptsUl:vector ETV
attr recordingmode vector
attr source harqTxAttemptsUl
attr title "Harq Tx Attempts Ul"
attr unit ""
vector 33 NetworkSlicing.gnb.cellularNic.mac harqErrorRate_1st_Ul:vector ETV
attr recordingmode vector
attr source harqErrorRate_1st_Ul
attr title "Harq Error Rate Ul (1st tx)"
attr unit ""
vector 34 NetworkSlicing.gnb.cellularNic.mac harqErrorRate_1st_Dl:vector ETV
attr recordingmode vector
attr source harqErrorRate_1st_Dl
attr title "Harq Error Rate Dl (1st tx)"
attr unit ""
vector 35 NetworkSlicing.gnb.cellularNic.mac harqErrorRate_2nd_Ul:vector ETV
attr recordingmode vector
attr source harqErrorRate_2nd_Ul
attr title "Harq Error Rate Ul (2nd tx)"
attr unit ""
vector 36 NetworkSlicing.gnb.cellularNic.mac harqErrorRate_2nd_Dl:vector ETV
attr recordingmode vector
attr source harqErrorRate_2nd_Dl
attr title "Harq Error Rate Dl (2nd tx)"
attr unit ""
vector 37 NetworkSlicing.gnb.cellularNic.mac harqErrorRate_3rd_Ul:vector ETV
attr recordingmode vector
attr source harqErrorRate_3rd_Ul
attr title "Harq Error Rate Ul (3rd tx)"
attr unit ""
vector 38 NetworkSlicing.gnb.cellularNic.mac harqErrorRate_3rd_Dl:vector ETV
attr recordingmode vector
attr source harqErrorRate_3rd_Dl
attr title "Harq Error Rate Dl (3rd tx)"
attr unit ""
vector 39 NetworkSlicing.gnb.cellularNic.mac harqErrorRate_4th_Ul:vector ETV
attr recordingmode vector
attr source harqErrorRate_4th_Ul
attr title "Harq Error Rate Ul (4th tx)"
attr unit ""
vector 40 NetworkSlicing.gnb.cellularNic.mac harqErrorRate_4th_Dl:vector ETV
attr recordingmode vector
attr source harqErrorRate_4th_Dl
attr title "Harq Error Rate Dl (4th tx)"
attr unit ""
vector 41 NetworkSlicing.gnb.cellularNic.mac avgServedBlocksDl:vector ETV
attr recordingmode vector
attr source avgServedBlocksDl
attr title "Average number of allocated Resource Blocks in the Dl"
attr unit blocks
vector 42 NetworkSlicing.gnb.cellularNic.mac avgServedBlocksUl:vector ETV
attr recordingmode vector
attr source avgServedBlocksUl
attr title "Average number of allocated Resource Blocks in the Dl"
attr unit blocks
vector 43 NetworkSlicing.gnb.cellularNic.channelModel[0] rcvdSinrDl:vector ETV
attr recordingmode vector
attr source rcvdSinrDl
attr title "SINR measured at packet reception, DL"
attr unit dB
vector 44 NetworkSlicing.gnb.cellularNic.channelModel[0] rcvdSinrUl:vector ETV
attr recordingmode vector
attr source rcvdSinrUl
attr title "SINR measured at packet reception, UL"
attr unit dB
vector 45 NetworkSlicing.gnb.cellularNic.channelModel[0] rcvdSinrD2D:vector ETV
attr recordingmode vector
attr source rcvdSinrD2D
attr title "SINR measured at packet reception, D2D"
attr unit dB
vector 46 NetworkSlicing.gnb.cellularNic.channelModel[0] measuredSinrDl:vector ETV
attr recordingmode vector
attr source measuredSinrDl
attr title "SINR measured at feedback computation, DL"
attr unit dB
vector 47 NetworkSlicing.gnb.cellularNic.channelModel[0] measuredSinrUl:vector ETV
attr recordingmode vector
attr source measuredSinrUl
attr title "SINR measured at feedback computation, UL"
attr unit dB
vector 48 NetworkSlicing.gnb.cellularNic packetDropInterfaceDown:vector(packetBytes) ETV
attr interpolationmode none
attr recordingmode vector(packetBytes)
attr source packetDropReasonIsInterfaceDown(packetDropped)
attr title "packet drops: interface down, packetBytes"
vector 49 NetworkSlicing.gnb.cellularNic packetDropNoCarrier:vector(packetBytes) ETV
attr interpolationmode none
attr recordingmode vector(packetBytes)
attr source packetDropReasonIsNoCarrier(packetDropped)
attr title "packet drops: no carrier, packetBytes"
vector 50 NetworkSlicing.gnb.pppIf.queue queueLength:vector ETV
attr autoWarmupFilter false
attr interpolationmode sample-hold
attr recordingmode vector
attr source "warmup(atomic(constant0(packetPushEnded) + count(packetPushStarted) - count(packetPulled) - count(packetRemoved) - count(packetDropped)))"
attr title "queue length"
attr unit pk
vector 51 NetworkSlicing.gnb.pppIf.queue queueBitLength:vector ETV
attr autoWarmupFilter false
attr interpolationmode sample-hold
attr recordingmode vector
attr source "warmup(atomic(constant0(packetPushEnded) + sum(packetLength(packetPushStarted)) - sum(packetLength(packetPulled)) - sum(packetLength(packetRemoved)) - sum(packetLength(packetDropped))))"
attr title "queue bit length"
attr unit b
vector 52 NetworkSlicing.gnb.pppIf.queue queueingTime:vector ETV
attr interpolationmode none
attr recordingmode vector
attr source queueingTime(packetPulled)
attr title "queueing times"
attr unit s
vector 53 NetworkSlicing.gnb.pppIf.queue incomingPacketLengths:vector ETV
attr interpolationmode none
attr recordingmode vector
attr source packetLength(packetPushStarted)
attr title "incoming packet lengths"
attr unit b
vector 54 NetworkSlicing.gnb.pppIf.queue incomingDataRate:vector ETV
attr interpolationmode linear
attr recordingmode vector
attr source throughput(packetPushStarted)
attr title "incoming datarate"
attr unit bps
vector 55 NetworkSlicing.gnb.pppIf.queue outgoingPacketLengths:vector ETV
attr interpolationmode none
attr recordingmode vector
attr source packetLength(packetPulled)
attr title "outgoing packet lengths"
attr unit b
vector 56 NetworkSlicing.gnb.pppIf.queue outgoingDataRate:vector ETV
attr interpolationmode linear
attr recordingmode vector
attr source throughput(packetPulled)
attr title "outgoing datarate"
attr unit bps
vector 57 NetworkSlicing.gnb.pppIf.queue droppedPacketLengthsQueueOverflow:vector ETV
attr interpolationmode none
attr recordingmode vector
attr source packetLength(packetDropReasonIsQueueOverflow(packetDropped))
attr title "dropped packet lengths: queue overflow"
attr unit b
vector 58 NetworkSlicing.gnb.pppIf.queue flowQueueingTime:vector ETV
attr interpolationmode none
attr recordingmode vector
attr source queueingTime(demuxFlow(packetPulled))
attr title "flow queueing times"
attr unit s
vector 59 NetworkSlicing.gnb.pppIf.queue flowIncomingDataRate:vector ETV
attr interpolationmode linear
attr recordingmode vector
attr source throughput(flowPacketLength(demuxFlow(packetPushStarted)))
attr title "flow specific incoming data rate"
attr unit bps
vector 60 NetworkSlicing.gnb.pppIf.queue flowOutgoingDataRate:vector ETV
attr interpolationmode linear
attr recordingmode vector
attr source throughput(flowPacketLength(demuxFlow(packetPulled)))
attr title "flow specific outgoing data rate"
attr unit bps
vector 61 NetworkSlicing.gnb.pppIf.ppp transmissionState:vector ETV
attr interpolationmode sample-hold
attr recordingmode vector
attr source transmissionStateChanged
attr title "tx state"
vector 62 NetworkSlicing.gnb.pppIf.ppp txPk:vector(packetBytes) ETV
attr interpolationmode none
attr recordingmode vector(packetBytes)
attr source packetSentToLower
attr title "packets transmitted, packetBytes"
vector 63 NetworkSlicing.gnb.pppIf.ppp rxPkOk:vector(packetBytes) ETV
attr interpolationmode none
attr recordingmode vector(packetBytes)
attr source rxPkOk
attr title "packets received OK, packetBytes"
vector 64 NetworkSlicing.gnb.pppIf.ppp packetDropIncorrectlyReceived:vector(packetBytes) ETV
attr interpolationmode none
attr recordingmode vector(packetBytes)
attr source packetDropReasonIsIncorrectlyReceived(packetDropped)
attr title "packet drop: incorrectly received, packetBytes"
vector 65 NetworkSlicing.gnb.pppIf.ppp packetDropInterfaceDown:vector(packetBytes) ETV
attr interpolationmode none
attr recordingmode vector(packetBytes)
attr source packetDropReasonIsInterfaceDown(packetDropped)
attr title "packet drop: interface down, packetBytes"
vector 66 NetworkSlicing.gnb.pppIf.ppp rcvdPkFromHl:vector(packetBytes) ETV
attr interpolationmode none
attr recordingmode vector(packetBytes)
attr source packetReceivedFromUpper
attr title "packets received from higher layer, packetBytes"
vector 67 NetworkSlicing.gnb.pppIf.ppp passedUpPk:vector(packetBytes) ETV
attr interpolationmode none
attr recordingmode vector(packetBytes)
attr source packetSentToUpper
attr title "packets passed to higher layer, packetBytes"
vector 68 NetworkSlicing.gnb.pppIf packetDropInterfaceDown:vector(packetBytes) ETV
attr interpolationmode none
attr recordingmode vector(packetBytes)
attr source packetDropReasonIsInterfaceDown(packetDropped)
attr title "packet drops: interface down, packetBytes"
vector 69 NetworkSlicing.gnb.pppIf packetDropNoCarrier:vector(packetBytes) ETV
attr interpolationmode none
attr recordingmode vector(packetBytes)
attr source packetDropReasonIsNoCarrier(packetDropped)
attr title "packet drops: no carrier, packetBytes"
vector 70 NetworkSlicing.gnb.pppMEHostIf.queue queueLength:vector ETV
attr autoWarmupFilter false
attr interpolationmode sample-hold
attr recordingmode vector
attr source "warmup(atomic(constant0(packetPushEnded) + count(packetPushStarted) - count(packetPulled) - count(packetRemoved) - count(packetDropped)))"
attr title "queue length"
attr unit pk
vector 71 NetworkSlicing.gnb.pppMEHostIf.queue queueBitLength:vector ETV
attr autoWarmupFilter false
attr interpolationmode sample-hold
attr recordingmode vector
attr source "warmup(atomic(constant0(packetPushEnded) + sum(packetLength(packetPushStarted)) - sum(packetLength(packetPulled)) - sum(packetLength(packetRemoved)) - sum(packetLength(packetDropped))))"
attr title "queue bit length"
attr unit b
vector 72 NetworkSlicing.gnb.pppMEHostIf.queue queueingTime:vector ETV
attr interpolationmode none
attr recordingmode vector
attr source queueingTime(packetPulled)
attr title "queueing times"
attr unit s
vector 73 NetworkSlicing.gnb.pppMEHostIf.queue incomingPacketLengths:vector ETV
attr interpolationmode none
attr recordingmode vector
attr source packetLength(packetPushStarted)
attr title "incoming packet lengths"
attr unit b
vector 74 NetworkSlicing.gnb.pppMEHostIf.queue incomingDataRate:vector ETV
attr interpolationmode linear
attr recordingmode vector
attr source throughput(packetPushStarted)
attr title "incoming datarate"
attr unit bps
vector 75 NetworkSlicing.gnb.pppMEHostIf.queue outgoingPacketLengths:vector ETV
attr interpolationmode none
attr recordingmode vector
attr source packetLength(packetPulled)
attr title "outgoing packet lengths"
attr unit b
vector 76 NetworkSlicing.gnb.pppMEHostIf.queue outgoingDataRate:vector ETV
attr interpolationmode linear
attr recordingmode vector
attr source throughput(packetPulled)
attr title "outgoing datarate"
attr unit bps
vector 77 NetworkSlicing.gnb.pppMEHostIf.queue droppedPacketLengthsQueueOverflow:vector ETV
attr interpolationmode none
attr recordingmode vector
attr source packetLength(packetDropReasonIsQueueOverflow(packetDropped))
attr title "dropped packet lengths: queue overflow"
attr unit b
vector 78 NetworkSlicing.gnb.pppMEHostIf.queue flowQueueingTime:vector ETV
attr interpolationmode none
attr recordingmode vector
attr source queueingTime(demuxFlow(packetPulled))
attr title "flow queueing times"
attr unit s
vector 79 NetworkSlicing.gnb.pppMEHostIf.queue flowIncomingDataRate:vector ETV
attr interpolationmode linear
attr recordingmode vector
attr source throughput(flowPacketLength(demuxFlow(packetPushStarted)))
attr title "flow specific incoming data rate"
attr unit bps
vector 80 NetworkSlicing.gnb.pppMEHostIf.queue flowOutgoingDataRate:vector ETV
attr interpolationmode linear
attr recordingmode vector
attr source throughput(flowPacketLength(demuxFlow(packetPulled)))
attr title "flow specific outgoing data rate"
attr unit bps
vector 81 NetworkSlicing.gnb.pppMEHostIf.ppp transmissionState:vector ETV
attr interpolationmode sample-hold
attr recordingmode vector
attr source transmissionStateChanged
attr title "tx state"
vector 82 NetworkSlicing.gnb.pppMEHostIf.ppp txPk:vector(packetBytes) ETV
attr interpolationmode none
attr recordingmode vector(packetBytes)
attr source packetSentToLower
attr title "packets transmitted, packetBytes"
vector 83 NetworkSlicing.gnb.pppMEHostIf.ppp rxPkOk:vector(packetBytes) ETV
attr interpolationmode none
attr recordingmode vector(packetBytes)
attr source rxPkOk
attr title "packets received OK, packetBytes"
vector 84 NetworkSlicing.gnb.pppMEHostIf.ppp packetDropIncorrectlyReceived:vector(packetBytes) ETV
attr interpolationmode none
attr recordingmode vector(packetBytes)
attr source packetDropReasonIsIncorrectlyReceived(packetDropped)
attr title "packet drop: incorrectly received, packetBytes"
vector 85 NetworkSlicing.gnb.pppMEHostIf.ppp packetDropInterfaceDown:vector(packetBytes) ETV
attr interpolationmode none
attr recordingmode vector(packetBytes)
attr source packetDropReasonIsInterfaceDown(packetDropped)
attr title "packet drop: interface down, packetBytes"
vector 86 NetworkSlicing.gnb.pppMEHostIf.ppp rcvdPkFromHl:vector(packetBytes) ETV
attr interpolationmode none
attr recordingmode vector(packetBytes)
attr source packetReceivedFromUpper
attr title "packets received from higher layer, packetBytes"
vector 87 NetworkSlicing.gnb.pppMEHostIf.ppp passedUpPk:vector(packetBytes) ETV
attr interpolationmode none
attr recordingmode vector(packetBytes)
attr source packetSentToUpper
attr title "packets passed to higher layer, packetBytes"
vector 88 NetworkSlicing.gnb.pppMEHostIf packetDropInterfaceDown:vector(packetBytes) ETV
attr interpolationmode none
attr recordingmode vector(packetBytes)
attr source packetDropReasonIsInterfaceDown(packetDropped)
attr title "packet drops: interface down, packetBytes"
vector 89 NetworkSlicing.gnb.pppMEHostIf packetDropNoCarrier:vector(packetBytes) ETV
attr interpolationmode none
attr recordingmode vector(packetBytes)
attr source packetDropReasonIsNoCarrier(packetDropped)
attr title "packet drops: no carrier, packetBytes"
vector 90 NetworkSlicing.gnb.ipv4.ip packetDropAddressResolutionFailed:vector(packetBytes) ETV
attr interpolationmode none
attr recordingmode vector(packetBytes)
attr source packetDropReasonIsAddressResolutionFailed(packetDropped)
attr title "packet drop: address resolution failed, packetBytes"
vector 91 NetworkSlicing.gnb.ipv4.ip packetDropHopLimitReached:vector(packetBytes) ETV
attr interpolationmode none
attr recordingmode vector(packetBytes)
attr source packetDropReasonIsHopLimitReached(packetDropped)
attr title "packet drop: hop limit reached, packetBytes"
vector 92 NetworkSlicing.gnb.ipv4.ip packetDropForwardingDisabled:vector(packetBytes) ETV
attr interpolationmode none
attr recordingmode vector(packetBytes)
attr source packetDropReasonIsForwardingDisabled(packetDropped)
attr title "packet drop: forwarding disabled, packetBytes"
vector 93 NetworkSlicing.gnb.ipv4.ip packetDropNoInterfaceFound:vector(packetBytes) ETV
attr interpolationmode none
attr recordingmode vector(packetBytes)
attr source packetDropReasonIsNoInterfaceFound(packetDropped)
attr title "packet drop: no interface found, packetBytes"
vector 94 NetworkSlicing.gnb.ipv4.ip packetDropNoRouteFound:vector(packetBytes) ETV
attr interpolationmode none
attr recordingmode vector(packetBytes)
attr source packetDropReasonIsNoRouteFound(packetDropped)
attr title "packet drop: no route found, packetBytes"
vector 95 NetworkSlicing.gnb.ipv4.ip packetDropUndefined:vector(packetBytes) ETV
attr interpolationmode none
attr recordingmode vector(packetBytes)
attr source packetDropReasonIsUndefined(packetDropped)
attr title "packet drop: undefined, packetBytes"
vector 96 NetworkSlicing.gnb.ipv4.arp arpRequestSent:vector(packetBytes) ETV
attr recordingmode vector(packetBytes)
attr source arpRequestSent
attr title "ARP request sent, packetBytes"
vector 97 NetworkSlicing.gnb.ipv4.arp arpReplySent:vector(packetBytes) ETV
attr recordingmode vector(packetBytes)
attr source arpReplySent
attr title "ARP replies sent, packetBytes"
vector 98 NetworkSlicing.gnb.udp packetSent:vector(packetBytes) ETV
attr interpolationmode none
attr recordingmode vector(packetBytes)
attr source packetSent
attr title "packets sent, packetBytes"
vector 99 NetworkSlicing.gnb.udp packetReceived:vector(packetBytes) ETV
attr interpolationmode none
attr recordingmode vector(packetBytes)
attr source packetReceived
attr title "packets received, packetBytes"
vector 100 NetworkSlicing.gnb.udp passedUpPk:vector(count) ETV
attr interpolationmode none
attr recordingmode vector(count)
attr source packetSentToUpper
attr title "packets passed up, count"
vector 101 NetworkSlicing.gnb.udp droppedPkWrongPort:vector(count) ETV
attr interpolationmode none
attr recordingmode vector(count)
attr source packetDropReasonIsNoPortFound(packetDropped)
attr title "packets dropped (wrong port), count"
vector 102 NetworkSlicing.gnb.udp droppedPkBadChecksum:vector(count) ETV
attr interpolationmode none
attr recordingmode vector(count)
attr source packetDropReasonIsIncorrectlyReceived(packetDropped)
attr title "packets dropped (checksum error), count"
vector 103 NetworkSlicing.iUpf.lo[0].lo rcvdPkFromHl:vector(packetBytes) ETV
attr interpolationmode none
attr recordingmode vector(packetBytes)
attr source packetReceivedFromUpper
attr title "packets received from higher layer, packetBytes"
vector 104 NetworkSlicing.iUpf.lo[0].lo passedUpPk:vector(packetBytes) ETV
attr interpolationmode none
attr recordingmode vector(packetBytes)
attr source packetSentToUpper
attr title "packets passed to higher layer, packetBytes"
vector 105 NetworkSlicing.iUpf.lo[0] packetDropInterfaceDown:vector(packetBytes) ETV
attr interpolationmode none
attr recordingmode vector(packetBytes)
attr source packetDropReasonIsInterfaceDown(packetDropped)
attr title "packet drops: interface down, packetBytes"
vector 106 NetworkSlicing.iUpf.lo[0] packetDropNoCarrier:vector(packetBytes) ETV
attr interpolationmode none
attr recordingmode vector(packetBytes)
attr source packetDropReasonIsNoCarrier(packetDropped)
attr title "packet drops: no carrier, packetBytes"
vector 107 NetworkSlicing.iUpf.ppp[0].queue queueLength:vector ETV
attr autoWarmupFilter false
attr interpolationmode sample-hold
attr recordingmode vector
attr source "warmup(atomic(constant0(packetPushEnded) + count(packetPushStarted) - count(packetPulled) - count(packetRemoved) - count(packetDropped)))"
attr title "queue length"
attr unit pk
vector 108 NetworkSlicing.iUpf.ppp[0].queue queueBitLength:vector ETV
attr autoWarmupFilter false
attr interpolationmode sample-hold
attr recordingmode vector
attr source "warmup(atomic(constant0(packetPushEnded) + sum(packetLength(packetPushStarted)) - sum(packetLength(packetPulled)) - sum(packetLength(packetRemoved)) - sum(packetLength(packetDropped))))"
attr title "queue bit length"
attr unit b
vector 109 NetworkSlicing.iUpf.ppp[0].queue queueingTime:vector ETV
attr interpolationmode none
attr recordingmode vector
attr source queueingTime(packetPulled)
attr title "queueing times"
attr unit s
vector 110 NetworkSlicing.iUpf.ppp[0].queue incomingPacketLengths:vector ETV
attr interpolationmode none
attr recordingmode vector
attr source packetLength(packetPushStarted)
attr title "incoming packet lengths"
attr unit b
vector 111 NetworkSlicing.iUpf.ppp[0].queue incomingDataRate:vector ETV
attr interpolationmode linear
attr recordingmode vector
attr source throughput(packetPushStarted)
attr title "incoming datarate"
attr unit bps
vector 112 NetworkSlicing.iUpf.ppp[0].queue outgoingPacketLengths:vector ETV
attr interpolationmode none
attr recordingmode vector
attr source packetLength(packetPulled)
attr title "outgoing packet lengths"
attr unit b
vector 113 NetworkSlicing.iUpf.ppp[0].queue outgoingDataRate:vector ETV
attr interpolationmode linear
attr recordingmode vector
attr source throughput(packetPulled)
attr title "outgoing datarate"
attr unit bps
vector 114 NetworkSlicing.iUpf.ppp[0].queue droppedPacketLengthsQueueOverflow:vector ETV
attr interpolationmode none
attr recordingmode vector
attr source packetLength(packetDropReasonIsQueueOverflow(packetDropped))
attr title "dropped packet lengths: queue overflow"
attr unit b
vector 115 NetworkSlicing.iUpf.ppp[0].queue flowQueueingTime:vector ETV
attr interpolationmode none
attr recordingmode vector
attr source queueingTime(demuxFlow(packetPulled))
attr title "flow queueing times"
attr unit s
vector 116 NetworkSlicing.iUpf.ppp[0].queue flowIncomingDataRate:vector ETV
attr interpolationmode linear
attr recordingmode vector
attr source throughput(flowPacketLength(demuxFlow(packetPushStarted)))
attr title "flow specific incoming data rate"
attr unit bps
vector 117 NetworkSlicing.iUpf.ppp[0].queue flowOutgoingDataRate:vector ETV
attr interpolationmode linear
attr recordingmode vector
attr source throughput(flowPacketLength(demuxFlow(packetPulled)))
attr title "flow specific outgoing data rate"
attr unit bps
vector 118 NetworkSlicing.iUpf.ppp[0].ppp transmissionState:vector ETV
attr interpolationmode sample-hold
attr recordingmode vector
attr source transmissionStateChanged
attr title "tx state"
vector 119 NetworkSlicing.iUpf.ppp[0].ppp txPk:vector(packetBytes) ETV
attr interpolationmode none
attr recordingmode vector(packetBytes)
attr source packetSentToLower
attr title "packets transmitted, packetBytes"
vector 120 NetworkSlicing.iUpf.ppp[0].ppp rxPkOk:vector(packetBytes) ETV
attr interpolationmode none
attr recordingmode vector(packetBytes)
attr source rxPkOk
attr title "packets received OK, packetBytes"
vector 121 NetworkSlicing.iUpf.ppp[0].ppp packetDropIncorrectlyReceived:vector(packetBytes) ETV
attr interpolationmode none
attr recordingmode vector(packetBytes)
attr source packetDropReasonIsIncorrectlyReceived(packetDropped)
attr title "packet drop: incorrectly received, packetBytes"
vector 122 NetworkSlicing.iUpf.ppp[0].ppp packetDropInterfaceDown:vector(packetBytes) ETV
attr interpolationmode none
attr recordingmode vector(packetBytes)
attr source packetDropReasonIsInterfaceDown(packetDropped)
attr title "packet drop: interface down, packetBytes"
vector 123 NetworkSlicing.iUpf.ppp[0].ppp rcvdPkFromHl:vector(packetBytes) ETV
attr interpolationmode none
attr recordingmode vector(packetBytes)
attr source packetReceivedFromUpper
attr title "packets received from higher layer, packetBytes"
vector 124 NetworkSlicing.iUpf.ppp[0].ppp passedUpPk:vector(packetBytes) ETV
attr interpolationmode none
attr recordingmode vector(packetBytes)
attr source packetSentToUpper
attr title "packets passed to higher layer, packetBytes"
vector 125 NetworkSlicing.iUpf.ppp[0] packetDropInterfaceDown:vector(packetBytes) ETV
attr interpolationmode none
attr recordingmode vector(packetBytes)
attr source packetDropReasonIsInterfaceDown(packetDropped)
attr title "packet drops: interface down, packetBytes"
vector 126 NetworkSlicing.iUpf.ppp[0] packetDropNoCarrier:vector(packetBytes) ETV
attr interpolationmode none
attr recordingmode vector(packetBytes)
attr source packetDropReasonIsNoCarrier(packetDropped)
attr title "packet drops: no carrier, packetBytes"
vector 127 NetworkSlicing.iUpf.ppp[1].queue queueLength:vector ETV
attr autoWarmupFilter false
attr interpolationmode sample-hold
attr recordingmode vector
attr source "warmup(atomic(constant0(packetPushEnded) + count(packetPushStarted) - count(packetPulled) - count(packetRemoved) - count(packetDropped)))"
attr title "queue length"
attr unit pk
vector 128 NetworkSlicing.iUpf.ppp[1].queue queueBitLength:vector ETV
attr autoWarmupFilter false
attr interpolationmode sample-hold
attr recordingmode vector
attr source "warmup(atomic(constant0(packetPushEnded) + sum(packetLength(packetPushStarted)) - sum(packetLength(packetPulled)) - sum(packetLength(packetRemoved)) - sum(packetLength(packetDropped))))"
attr title "queue bit length"
attr unit b
vector 129 NetworkSlicing.iUpf.ppp[1].queue queueingTime:vector ETV
attr interpolationmode none
attr recordingmode vector
attr source queueingTime(packetPulled)
attr title "queueing times"
attr unit s
vector 130 NetworkSlicing.iUpf.ppp[1].queue incomingPacketLengths:vector ETV
attr interpolationmode none
attr recordingmode vector
attr source packetLength(packetPushStarted)
attr title "incoming packet lengths"
attr unit b
vector 131 NetworkSlicing.iUpf.ppp[1].queue incomingDataRate:vector ETV
attr interpolationmode linear
attr recordingmode vector
attr source throughput(packetPushStarted)
attr title "incoming datarate"
attr unit bps
vector 132 NetworkSlicing.iUpf.ppp[1].queue outgoingPacketLengths:vector ETV
attr interpolationmode none
attr recordingmode vector
attr source packetLength(packetPulled)
attr title "outgoing packet lengths"
attr unit b
vector 133 NetworkSlicing.iUpf.ppp[1].queue outgoingDataRate:vector ETV
attr interpolationmode linear
attr recordingmode vector
attr source throughput(packetPulled)
attr title "outgoing datarate"
attr unit bps
vector 134 NetworkSlicing.iUpf.ppp[1].queue droppedPacketLengthsQueueOverflow:vector ETV
attr interpolationmode none
attr recordingmode vector
attr source packetLength(packetDropReasonIsQueueOverflow(packetDropped))
attr title "dropped packet lengths: queue overflow"
attr unit b
vector 135 NetworkSlicing.iUpf.ppp[1].queue flowQueueingTime:vector ETV
attr interpolationmode none
attr recordingmode vector
attr source queueingTime(demuxFlow(packetPulled))
attr title "flow queueing times"
attr unit s
vector 136 NetworkSlicing.iUpf.ppp[1].queue flowIncomingDataRate:vector ETV
attr interpolationmode linear
attr recordingmode vector
attr source throughput(flowPacketLength(demuxFlow(packetPushStarted)))
attr title "flow specific incoming data rate"
attr unit bps
vector 137 NetworkSlicing.iUpf.ppp[1].queue flowOutgoingDataRate:vector ETV
attr interpolationmode linear
attr recordingmode vector
attr source throughput(flowPacketLength(demuxFlow(packetPulled)))
attr title "flow specific outgoing data rate"
attr unit bps
vector 138 NetworkSlicing.iUpf.ppp[1].ppp transmissionState:vector ETV
attr interpolationmode sample-hold
attr recordingmode vector
attr source transmissionStateChanged
attr title "tx state"
vector 139 NetworkSlicing.iUpf.ppp[1].ppp txPk:vector(packetBytes) ETV
attr interpolationmode none
attr recordingmode vector(packetBytes)
attr source packetSentToLower
attr title "packets transmitted, packetBytes"
vector 140 NetworkSlicing.iUpf.ppp[1].ppp rxPkOk:vector(packetBytes) ETV
attr interpolationmode none
attr recordingmode vector(packetBytes)
attr source rxPkOk
attr title "packets received OK, packetBytes"
vector 141 NetworkSlicing.iUpf.ppp[1].ppp packetDropIncorrectlyReceived:vector(packetBytes) ETV
attr interpolationmode none
attr recordingmode vector(packetBytes)
attr source packetDropReasonIsIncorrectlyReceived(packetDropped)
attr title "packet drop: incorrectly received, packetBytes"
vector 142 NetworkSlicing.iUpf.ppp[1].ppp packetDropInterfaceDown:vector(packetBytes) ETV
attr interpolationmode none
attr recordingmode vector(packetBytes)
attr source packetDropReasonIsInterfaceDown(packetDropped)
attr title "packet drop: interface down, packetBytes"
vector 143 NetworkSlicing.iUpf.ppp[1].ppp rcvdPkFromHl:vector(packetBytes) ETV
attr interpolationmode none
attr recordingmode vector(packetBytes)
attr source packetReceivedFromUpper
attr title "packets received from higher layer, packetBytes"
vector 144 NetworkSlicing.iUpf.ppp[1].ppp passedUpPk:vector(packetBytes) ETV
attr interpolationmode none
attr recordingmode vector(packetBytes)
attr source packetSentToUpper
attr title "packets passed to higher layer, packetBytes"
vector 145 NetworkSlicing.iUpf.ppp[1] packetDropInterfaceDown:vector(packetBytes) ETV
attr interpolationmode none
attr recordingmode vector(packetBytes)
attr source packetDropReasonIsInterfaceDown(packetDropped)
attr title "packet drops: interface down, packetBytes"
vector 146 NetworkSlicing.iUpf.ppp[1] packetDropNoCarrier:vector(packetBytes) ETV
attr interpolationmode none
attr recordingmode vector(packetBytes)
attr source packetDropReasonIsNoCarrier(packetDropped)
attr title "packet drops: no carrier, packetBytes"
vector 147 NetworkSlicing.iUpf.ipv4.ip packetDropAddressResolutionFailed:vector(packetBytes) ETV
attr interpolationmode none
attr recordingmode vector(packetBytes)
attr source packetDropReasonIsAddressResolutionFailed(packetDropped)
attr title "packet drop: address resolution failed, packetBytes"
vector 148 NetworkSlicing.iUpf.ipv4.ip packetDropHopLimitReached:vector(packetBytes) ETV
attr interpolationmode none
attr recordingmode vector(packetBytes)
attr source packetDropReasonIsHopLimitReached(packetDropped)
attr title "packet drop: hop limit reached, packetBytes"
vector 149 NetworkSlicing.iUpf.ipv4.ip packetDropForwardingDisabled:vector(packetBytes) ETV
attr interpolationmode none
attr recordingmode vector(packetBytes)
attr source packetDropReasonIsForwardingDisabled(packetDropped)
attr title "packet drop: forwarding disabled, packetBytes"
vector 150 NetworkSlicing.iUpf.ipv4.ip packetDropNoInterfaceFound:vector(packetBytes) ETV
attr interpolationmode none
attr recordingmode vector(packetBytes)
attr source packetDropReasonIsNoInterfaceFound(packetDropped)
attr title "packet drop: no interface found, packetBytes"
vector 151 NetworkSlicing.iUpf.ipv4.ip packetDropNoRouteFound:vector(packetBytes) ETV
attr interpolationmode none
attr recordingmode vector(packetBytes)
attr source packetDropReasonIsNoRouteFound(packetDropped)
attr title "packet drop: no route found, packetBytes"
vector 152 NetworkSlicing.iUpf.ipv4.ip packetDropUndefined:vector(packetBytes) ETV
attr interpolationmode none
attr recordingmode vector(packetBytes)
attr source packetDropReasonIsUndefined(packetDropped)
attr title "packet drop: undefined, packetBytes"
vector 153 NetworkSlicing.iUpf.ipv4.arp arpRequestSent:vector(packetBytes) ETV
attr recordingmode vector(packetBytes)
attr source arpRequestSent
attr title "ARP request sent, packetBytes"
vector 154 NetworkSlicing.iUpf.ipv4.arp arpReplySent:vector(packetBytes) ETV
attr recordingmode vector(packetBytes)
attr source arpReplySent
attr title "ARP replies sent, packetBytes"
vector 155 NetworkSlicing.iUpf.pppIf.queue queueLength:vector ETV
attr autoWarmupFilter false
attr interpolationmode sample-hold
attr recordingmode vector
attr source "warmup(atomic(constant0(packetPushEnded) + count(packetPushStarted) - count(packetPulled) - count(packetRemoved) - count(packetDropped)))"
attr title "queue length"
attr unit pk
vector 156 NetworkSlicing.iUpf.pppIf.queue queueBitLength:vector ETV
attr autoWarmupFilter false
attr interpolationmode sample-hold
attr recordingmode vector
attr source "warmup(atomic(constant0(packetPushEnded) + sum(packetLength(packetPushStarted)) - sum(packetLength(packetPulled)) - sum(packetLength(packetRemoved)) - sum(packetLength(packetDropped))))"
attr title "queue bit length"
attr unit b
vector 157 NetworkSlicing.iUpf.pppIf.queue queueingTime:vector ETV
attr interpolationmode none
attr recordingmode vector
attr source queueingTime(packetPulled)
attr title "queueing times"
attr unit s
vector 158 NetworkSlicing.iUpf.pppIf.queue incomingPacketLengths:vector ETV
attr interpolationmode none
attr recordingmode vector
attr source packetLength(packetPushStarted)
attr title "incoming packet lengths"
attr unit b
vector 159 NetworkSlicing.iUpf.pppIf.queue incomingDataRate:vector ETV
attr interpolationmode linear
attr recordingmode vector
attr source throughput(packetPushStarted)
attr title "incoming datarate"
attr unit bps
vector 160 NetworkSlicing.iUpf.pppIf.queue outgoingPacketLengths:vector ETV
attr interpolationmode none
attr recordingmode vector
attr source packetLength(packetPulled)
attr title "outgoing packet lengths"
attr unit b
vector 161 NetworkSlicing.iUpf.pppIf.queue outgoingDataRate:vector ETV
attr interpolationmode linear
attr recordingmode vector
attr source throughput(packetPulled)
attr title "outgoing datarate"
attr unit bps
vector 162 NetworkSlicing.iUpf.pppIf.queue droppedPacketLengthsQueueOverflow:vector ETV
attr interpolationmode none
attr recordingmode vector
attr source packetLength(packetDropReasonIsQueueOverflow(packetDropped))
attr title "dropped packet lengths: queue overflow"
attr unit b
vector 163 NetworkSlicing.iUpf.pppIf.queue flowQueueingTime:vector ETV
attr interpolationmode none
attr recordingmode vector
attr source queueingTime(demuxFlow(packetPulled))
attr title "flow queueing times"
attr unit s
vector 164 NetworkSlicing.iUpf.pppIf.queue flowIncomingDataRate:vector ETV
attr interpolationmode linear
attr recordingmode vector
attr source throughput(flowPacketLength(demuxFlow(packetPushStarted)))
attr title "flow specific incoming data rate"
attr unit bps
vector 165 NetworkSlicing.iUpf.pppIf.queue flowOutgoingDataRate:vector ETV
attr interpolationmode linear
attr recordingmode vector
attr source throughput(flowPacketLength(demuxFlow(packetPulled)))
attr title "flow specific outgoing data rate"
attr unit bps
vector 166 NetworkSlicing.iUpf.pppIf.ppp transmissionState:vector ETV
attr interpolationmode sample-hold
attr recordingmode vector
attr source transmissionStateChanged
attr title "tx state"
vector 167 NetworkSlicing.iUpf.pppIf.ppp txPk:vector(packetBytes) ETV
attr interpolationmode none
attr recordingmode vector(packetBytes)
attr source packetSentToLower
attr title "packets transmitted, packetBytes"
vector 168 NetworkSlicing.iUpf.pppIf.ppp rxPkOk:vector(packetBytes) ETV
attr interpolationmode none
attr recordingmode vector(packetBytes)
attr source rxPkOk
attr title "packets received OK, packetBytes"
vector 169 NetworkSlicing.iUpf.pppIf.ppp packetDropIncorrectlyReceived:vector(packetBytes) ETV
attr interpolationmode none
attr recordingmode vector(packetBytes)
attr source packetDropReasonIsIncorrectlyReceived(packetDropped)
attr title "packet drop: incorrectly received, packetBytes"
vector 170 NetworkSlicing.iUpf.pppIf.ppp packetDropInterfaceDown:vector(packetBytes) ETV
attr interpolationmode none
attr recordingmode vector(packetBytes)
attr source packetDropReasonIsInterfaceDown(packetDropped)
attr title "packet drop: interface down, packetBytes"
vector 171 NetworkSlicing.iUpf.pppIf.ppp rcvdPkFromHl:vector(packetBytes) ETV
attr interpolationmode none
attr recordingmode vector(packetBytes)
attr source packetReceivedFromUpper
attr title "packets received from higher layer, packetBytes"
vector 172 NetworkSlicing.iUpf.pppIf.ppp passedUpPk:vector(packetBytes) ETV
attr interpolationmode none
attr recordingmode vector(packetBytes)
attr source packetSentToUpper
attr title "packets passed to higher layer, packetBytes"
vector 173 NetworkSlicing.iUpf.pppIf packetDropInterfaceDown:vector(packetBytes) ETV
attr interpolationmode none
attr recordingmode vector(packetBytes)
attr source packetDropReasonIsInterfaceDown(packetDropped)
attr title "packet drops: interface down, packetBytes"
vector 174 NetworkSlicing.iUpf.pppIf packetDropNoCarrier:vector(packetBytes) ETV
attr interpolationmode none
attr recordingmode vector(packetBytes)
attr source packetDropReasonIsNoCarrier(packetDropped)
attr title "packet drops: no carrier, packetBytes"
vector 175 NetworkSlicing.iUpf.udp packetSent:vector(packetBytes) ETV
attr interpolationmode none
attr recordingmode vector(packetBytes)
attr source packetSent
attr title "packets sent, packetBytes"
vector 176 NetworkSlicing.iUpf.udp packetReceived:vector(packetBytes) ETV
attr interpolationmode none
attr recordingmode vector(packetBytes)
attr source packetReceived
attr title "packets received, packetBytes"
vector 177 NetworkSlicing.iUpf.udp passedUpPk:vector(count) ETV
attr interpolationmode none
attr recordingmode vector(count)
attr source packetSentToUpper
attr title "packets passed up, count"
vector 178 NetworkSlicing.iUpf.udp droppedPkWrongPort:vector(count) ETV
attr interpolationmode none
attr recordingmode vector(count)
attr source packetDropReasonIsNoPortFound(packetDropped)
attr title "packets dropped (wrong port), count"
vector 179 NetworkSlicing.iUpf.udp droppedPkBadChecksum:vector(count) ETV
attr interpolationmode none
attr recordingmode vector(count)
attr source packetDropReasonIsIncorrectlyReceived(packetDropped)
attr title "packets dropped (checksum error), count"
vector 180 NetworkSlicing.upf.lo[0].lo rcvdPkFromHl:vector(packetBytes) ETV
attr interpolationmode none
attr recordingmode vector(packetBytes)
attr source packetReceivedFromUpper
attr title "packets received from higher layer, packetBytes"
vector 181 NetworkSlicing.upf.lo[0].lo passedUpPk:vector(packetBytes) ETV
attr interpolationmode none
attr recordingmode vector(packetBytes)
attr source packetSentToUpper
attr title "packets passed to higher layer, packetBytes"
vector 182 NetworkSlicing.upf.lo[0] packetDropInterfaceDown:vector(packetBytes) ETV
attr interpolationmode none
attr recordingmode vector(packetBytes)
attr source packetDropReasonIsInterfaceDown(packetDropped)
attr title "packet drops: interface down, packetBytes"
vector 183 NetworkSlicing.upf.lo[0] packetDropNoCarrier:vector(packetBytes) ETV
attr interpolationmode none
attr recordingmode vector(packetBytes)
attr source packetDropReasonIsNoCarrier(packetDropped)
attr title "packet drops: no carrier, packetBytes"
vector 184 NetworkSlicing.upf.ppp[0].queue queueLength:vector ETV
attr autoWarmupFilter false
attr interpolationmode sample-hold
attr recordingmode vector
attr source "warmup(atomic(constant0(packetPushEnded) + count(packetPushStarted) - count(packetPulled) - count(packetRemoved) - count(packetDropped)))"
attr title "queue length"
attr unit pk
vector 185 NetworkSlicing.upf.ppp[0].queue queueBitLength:vector ETV
attr autoWarmupFilter false
attr interpolationmode sample-hold
attr recordingmode vector
attr source "warmup(atomic(constant0(packetPushEnded) + sum(packetLength(packetPushStarted)) - sum(packetLength(packetPulled)) - sum(packetLength(packetRemoved)) - sum(packetLength(packetDropped))))"
attr title "queue bit length"
attr unit b
vector 186 NetworkSlicing.upf.ppp[0].queue queueingTime:vector ETV
attr interpolationmode none
attr recordingmode vector
attr source queueingTime(packetPulled)
attr title "queueing times"
attr unit s
vector 187 NetworkSlicing.upf.ppp[0].queue incomingPacketLengths:vector ETV
attr interpolationmode none
attr recordingmode vector
attr source packetLength(packetPushStarted)
attr title "incoming packet lengths"
attr unit b
vector 188 NetworkSlicing.upf.ppp[0].queue incomingDataRate:vector ETV
attr interpolationmode linear
attr recordingmode vector
attr source throughput(packetPushStarted)
attr title "incoming datarate"
attr unit bps
vector 189 NetworkSlicing.upf.ppp[0].queue outgoingPacketLengths:vector ETV
attr interpolationmode none
attr recordingmode vector
attr source packetLength(packetPulled)
attr title "outgoing packet lengths"
attr unit b
vector 190 NetworkSlicing.upf.ppp[0].queue outgoingDataRate:vector ETV
attr interpolationmode linear
attr recordingmode vector
attr source throughput(packetPulled)
attr title "outgoing datarate"
attr unit bps
vector 191 NetworkSlicing.upf.ppp[0].queue droppedPacketLengthsQueueOverflow:vector ETV
attr interpolationmode none
attr recordingmode vector
attr source packetLength(packetDropReasonIsQueueOverflow(packetDropped))
attr title "dropped packet lengths: queue overflow"
attr unit b
vector 192 NetworkSlicing.upf.ppp[0].queue flowQueueingTime:vector ETV
attr interpolationmode none
attr recordingmode vector
attr source queueingTime(demuxFlow(packetPulled))
attr title "flow queueing times"
attr unit s
vector 193 NetworkSlicing.upf.ppp[0].queue flowIncomingDataRate:vector ETV
attr interpolationmode linear
attr recordingmode vector
attr source throughput(flowPacketLength(demuxFlow(packetPushStarted)))
attr title "flow specific incoming data rate"
attr unit bps
vector 194 NetworkSlicing.upf.ppp[0].queue flowOutgoingDataRate:vector ETV
attr interpolationmode linear
attr recordingmode vector
attr source throughput(flowPacketLength(demuxFlow(packetPulled)))
attr title "flow specific outgoing data rate"
attr unit bps
vector 195 NetworkSlicing.upf.ppp[0].ppp transmissionState:vector ETV
attr interpolationmode sample-hold
attr recordingmode vector
attr source transmissionStateChanged
attr title "tx state"
vector 196 NetworkSlicing.upf.ppp[0].ppp txPk:vector(packetBytes) ETV
attr interpolationmode none
attr recordingmode vector(packetBytes)
attr source packetSentToLower
attr title "packets transmitted, packetBytes"
vector 197 NetworkSlicing.upf.ppp[0].ppp rxPkOk:vector(packetBytes) ETV
attr interpolationmode none
attr recordingmode vector(packetBytes)
attr source rxPkOk
attr title "packets received OK, packetBytes"
vector 198 NetworkSlicing.upf.ppp[0].ppp packetDropIncorrectlyReceived:vector(packetBytes) ETV
attr interpolationmode none
attr recordingmode vector(packetBytes)
attr source packetDropReasonIsIncorrectlyReceived(packetDropped)
attr title "packet drop: incorrectly received, packetBytes"
vector 199 NetworkSlicing.upf.ppp[0].ppp packetDropInterfaceDown:vector(packetBytes) ETV
attr interpolationmode none
attr recordingmode vector(packetBytes)
attr source packetDropReasonIsInterfaceDown(packetDropped)
attr title "packet drop: interface down, packetBytes"
vector 200 NetworkSlicing.upf.ppp[0].ppp rcvdPkFromHl:vector(packetBytes) ETV
attr interpolationmode none
attr recordingmode vector(packetBytes)
attr source packetReceivedFromUpper
attr title "packets received from higher layer, packetBytes"
vector 201 NetworkSlicing.upf.ppp[0].ppp passedUpPk:vector(packetBytes) ETV
attr interpolationmode none
attr recordingmode vector(packetBytes)
attr source packetSentToUpper
attr title "packets passed to higher layer, packetBytes"
vector 202 NetworkSlicing.upf.ppp[0] packetDropInterfaceDown:vector(packetBytes) ETV
attr interpolationmode none
attr recordingmode vector(packetBytes)
attr source packetDropReasonIsInterfaceDown(packetDropped)
attr title "packet drops: interface down, packetBytes"
vector 203 NetworkSlicing.upf.ppp[0] packetDropNoCarrier:vector(packetBytes) ETV
attr interpolationmode none
attr recordingmode vector(packetBytes)
attr source packetDropReasonIsNoCarrier(packetDropped)
attr title "packet drops: no carrier, packetBytes"
vector 204 NetworkSlicing.upf.ipv4.ip packetDropAddressResolutionFailed:vector(packetBytes) ETV
attr interpolationmode none
attr recordingmode vector(packetBytes)
attr source packetDropReasonIsAddressResolutionFailed(packetDropped)
attr title "packet drop: address resolution failed, packetBytes"
vector 205 NetworkSlicing.upf.ipv4.ip packetDropHopLimitReached:vector(packetBytes) ETV
attr interpolationmode none
attr recordingmode vector(packetBytes)
attr source packetDropReasonIsHopLimitReached(packetDropped)
attr title "packet drop: hop limit reached, packetBytes"
vector 206 NetworkSlicing.upf.ipv4.ip packetDropForwardingDisabled:vector(packetBytes) ETV
attr interpolationmode none
attr recordingmode vector(packetBytes)
attr source packetDropReasonIsForwardingDisabled(packetDropped)
attr title "packet drop: forwarding disabled, packetBytes"
vector 207 NetworkSlicing.upf.ipv4.ip packetDropNoInterfaceFound:vector(packetBytes) ETV
attr interpolationmode none
attr recordingmode vector(packetBytes)
attr source packetDropReasonIsNoInterfaceFound(packetDropped)
attr title "packet drop: no interface found, packetBytes"
vector 208 NetworkSlicing.upf.ipv4.ip packetDropNoRouteFound:vector(packetBytes) ETV
attr interpolationmode none
attr recordingmode vector(packetBytes)
attr source packetDropReasonIsNoRouteFound(packetDropped)
attr title "packet drop: no route found, packetBytes"
vector 209 NetworkSlicing.upf.ipv4.ip packetDropUndefined:vector(packetBytes) ETV
attr interpolationmode none
attr recordingmode vector(packetBytes)
attr source packetDropReasonIsUndefined(packetDropped)
attr title "packet drop: undefined, packetBytes"
vector 210 NetworkSlicing.upf.ipv4.arp arpRequestSent:vector(packetBytes) ETV
attr recordingmode vector(packetBytes)
attr source arpRequestSent
attr title "ARP request sent, packetBytes"
vector 211 NetworkSlicing.upf.ipv4.arp arpReplySent:vector(packetBytes) ETV
attr recordingmode vector(packetBytes)
attr source arpReplySent
attr title "ARP replies sent, packetBytes"
vector 212 NetworkSlicing.upf.pppIf.queue queueLength:vector ETV
attr autoWarmupFilter false
attr interpolationmode sample-hold
attr recordingmode vector
attr source "warmup(atomic(constant0(packetPushEnded) + count(packetPushStarted) - count(packetPulled) - count(packetRemoved) - count(packetDropped)))"
attr title "queue length"
attr unit pk
vector 213 NetworkSlicing.upf.pppIf.queue queueBitLength:vector ETV
attr autoWarmupFilter false
attr interpolationmode sample-hold
attr recordingmode vector
attr source "warmup(atomic(constant0(packetPushEnded) + sum(packetLength(packetPushStarted)) - sum(packetLength(packetPulled)) - sum(packetLength(packetRemoved)) - sum(packetLength(packetDropped))))"
attr title "queue bit length"
attr unit b
vector 214 NetworkSlicing.upf.pppIf.queue queueingTime:vector ETV
attr interpolationmode none
attr recordingmode vector
attr source queueingTime(packetPulled)
attr title "queueing times"
attr unit s
vector 215 NetworkSlicing.upf.pppIf.queue incomingPacketLengths:vector ETV
attr interpolationmode none
attr recordingmode vector
attr source packetLength(packetPushStarted)
attr title "incoming packet lengths"
attr unit b
vector 216 NetworkSlicing.upf.pppIf.queue incomingDataRate:vector ETV
attr interpolationmode linear
attr recordingmode vector
attr source throughput(packetPushStarted)
attr title "incoming datarate"
attr unit bps
vector 217 NetworkSlicing.upf.pppIf.queue outgoingPacketLengths:vector ETV
attr interpolationmode none
attr recordingmode vector
attr source packetLength(packetPulled)
attr title "outgoing packet lengths"
attr unit b
vector 218 NetworkSlicing.upf.pppIf.queue outgoingDataRate:vector ETV
attr interpolationmode linear
attr recordingmode vector
attr source throughput(packetPulled)
attr title "outgoing datarate"
attr unit bps
vector 219 NetworkSlicing.upf.pppIf.queue droppedPacketLengthsQueueOverflow:vector ETV
attr interpolationmode none
attr recordingmode vector
attr source packetLength(packetDropReasonIsQueueOverflow(packetDropped))
attr title "dropped packet lengths: queue overflow"
attr unit b
vector 220 NetworkSlicing.upf.pppIf.queue flowQueueingTime:vector ETV
attr interpolationmode none
attr recordingmode vector
attr source queueingTime(demuxFlow(packetPulled))
attr title "flow queueing times"
attr unit s
vector 221 NetworkSlicing.upf.pppIf.queue flowIncomingDataRate:vector ETV
attr interpolationmode linear
attr recordingmode vector
attr source throughput(flowPacketLength(demuxFlow(packetPushStarted)))
attr title "flow specific incoming data rate"
attr unit bps
vector 222 NetworkSlicing.upf.pppIf.queue flowOutgoingDataRate:vector ETV
attr interpolationmode linear
attr recordingmode vector
attr source throughput(flowPacketLength(demuxFlow(packetPulled)))
attr title "flow specific outgoing data rate"
attr unit bps
vector 223 NetworkSlicing.upf.pppIf.ppp transmissionState:vector ETV
attr interpolationmode sample-hold
attr recordingmode vector
attr source transmissionStateChanged
attr title "tx state"
vector 224 NetworkSlicing.upf.pppIf.ppp txPk:vector(packetBytes) ETV
attr interpolationmode none
attr recordingmode vector(packetBytes)
attr source packetSentToLower
attr title "packets transmitted, packetBytes"
vector 225 NetworkSlicing.upf.pppIf.ppp rxPkOk:vector(packetBytes) ETV
attr interpolationmode none
attr recordingmode vector(packetBytes)
attr source rxPkOk
attr title "packets received OK, packetBytes"
vector 226 NetworkSlicing.upf.pppIf.ppp packetDropIncorrectlyReceived:vector(packetBytes) ETV
attr interpolationmode none
attr recordingmode vector(packetBytes)
attr source packetDropReasonIsIncorrectlyReceived(packetDropped)
attr title "packet drop: incorrectly received, packetBytes"
vector 227 NetworkSlicing.upf.pppIf.ppp packetDropInterfaceDown:vector(packetBytes) ETV
attr interpolationmode none
attr recordingmode vector(packetBytes)
attr source packetDropReasonIsInterfaceDown(packetDropped)
attr title "packet drop: interface down, packetBytes"
vector 228 NetworkSlicing.upf.pppIf.ppp rcvdPkFromHl:vector(packetBytes) ETV
attr interpolationmode none
attr recordingmode vector(packetBytes)
attr source packetReceivedFromUpper
attr title "packets received from higher layer, packetBytes"
vector 229 NetworkSlicing.upf.pppIf.ppp passedUpPk:vector(packetBytes) ETV
attr interpolationmode none
attr recordingmode vector(packetBytes)
attr source packetSentToUpper
attr title "packets passed to higher layer, packetBytes"
vector 230 NetworkSlicing.upf.pppIf packetDropInterfaceDown:vector(packetBytes) ETV
attr interpolationmode none
attr recordingmode vector(packetBytes)
attr source packetDropReasonIsInterfaceDown(packetDropped)
attr title "packet drops: interface down, packetBytes"
vector 231 NetworkSlicing.upf.pppIf packetDropNoCarrier:vector(packetBytes) ETV
attr interpolationmode none
attr recordingmode vector(packetBytes)
attr source packetDropReasonIsNoCarrier(packetDropped)
attr title "packet drops: no carrier, packetBytes"
vector 232 NetworkSlicing.upf.udp packetSent:vector(packetBytes) ETV
attr interpolationmode none
attr recordingmode vector(packetBytes)
attr source packetSent
attr title "packets sent, packetBytes"
vector 233 NetworkSlicing.upf.udp packetReceived:vector(packetBytes) ETV
attr interpolationmode none
attr recordingmode vector(packetBytes)
attr source packetReceived
attr title "packets received, packetBytes"
vector 234 NetworkSlicing.upf.udp passedUpPk:vector(count) ETV
attr interpolationmode none
attr recordingmode vector(count)
attr source packetSentToUpper
attr title "packets passed up, count"
vector 235 NetworkSlicing.upf.udp droppedPkWrongPort:vector(count) ETV
attr interpolationmode none
attr recordingmode vector(count)
attr source packetDropReasonIsNoPortFound(packetDropped)
attr title "packets dropped (wrong port), count"
vector 236 NetworkSlicing.upf.udp droppedPkBadChecksum:vector(count) ETV
attr interpolationmode none
attr recordingmode vector(count)
attr source packetDropReasonIsIncorrectlyReceived(packetDropped)
attr title "packets dropped (checksum error), count"
vector 237 NetworkSlicing.router.lo[0].lo rcvdPkFromHl:vector(packetBytes) ETV
attr interpolationmode none
attr recordingmode vector(packetBytes)
attr source packetReceivedFromUpper
attr title "packets received from higher layer, packetBytes"
vector 238 NetworkSlicing.router.lo[0].lo passedUpPk:vector(packetBytes) ETV
attr interpolationmode none
attr recordingmode vector(packetBytes)
attr source packetSentToUpper
attr title "packets passed to higher layer, packetBytes"
vector 239 NetworkSlicing.router.lo[0] packetDropInterfaceDown:vector(packetBytes) ETV
attr interpolationmode none
attr recordingmode vector(packetBytes)
attr source packetDropReasonIsInterfaceDown(packetDropped)
attr title "packet drops: interface down, packetBytes"
vector 240 NetworkSlicing.router.lo[0] packetDropNoCarrier:vector(packetBytes) ETV
attr interpolationmode none
attr recordingmode vector(packetBytes)
attr source packetDropReasonIsNoCarrier(packetDropped)
attr title "packet drops: no carrier, packetBytes"
vector 241 NetworkSlicing.router.ppp[0].queue queueLength:vector ETV
attr autoWarmupFilter false
attr interpolationmode sample-hold
attr recordingmode vector
attr source "warmup(atomic(constant0(packetPushEnded) + count(packetPushStarted) - count(packetPulled) - count(packetRemoved) - count(packetDropped)))"
attr title "queue length"
attr unit pk
vector 242 NetworkSlicing.router.ppp[0].queue queueBitLength:vector ETV
attr autoWarmupFilter false
attr interpolationmode sample-hold
attr recordingmode vector
attr source "warmup(atomic(constant0(packetPushEnded) + sum(packetLength(packetPushStarted)) - sum(packetLength(packetPulled)) - sum(packetLength(packetRemoved)) - sum(packetLength(packetDropped))))"
attr title "queue bit length"
attr unit b
vector 243 NetworkSlicing.router.ppp[0].queue queueingTime:vector ETV
attr interpolationmode none
attr recordingmode vector
attr source queueingTime(packetPulled)
attr title "queueing times"
attr unit s
vector 244 NetworkSlicing.router.ppp[0].queue incomingPacketLengths:vector ETV
attr interpolationmode none
attr recordingmode vector
attr source packetLength(packetPushStarted)
attr title "incoming packet lengths"
attr unit b
vector 245 NetworkSlicing.router.ppp[0].queue incomingDataRate:vector ETV
attr interpolationmode linear
attr recordingmode vector
attr source throughput(packetPushStarted)
attr title "incoming datarate"
attr unit bps
vector 246 NetworkSlicing.router.ppp[0].queue outgoingPacketLengths:vector ETV
attr interpolationmode none
attr recordingmode vector
attr source packetLength(packetPulled)
attr title "outgoing packet lengths"
attr unit b
vector 247 NetworkSlicing.router.ppp[0].queue outgoingDataRate:vector ETV
attr interpolationmode linear
attr recordingmode vector
attr source throughput(packetPulled)
attr title "outgoing datarate"
attr unit bps
vector 248 NetworkSlicing.router.ppp[0].queue droppedPacketLengthsQueueOverflow:vector ETV
attr interpolationmode none
attr recordingmode vector
attr source packetLength(packetDropReasonIsQueueOverflow(packetDropped))
attr title "dropped packet lengths: queue overflow"
attr unit b
vector 249 NetworkSlicing.router.ppp[0].queue flowQueueingTime:vector ETV
attr interpolationmode none
attr recordingmode vector
attr source queueingTime(demuxFlow(packetPulled))
attr title "flow queueing times"
attr unit s
vector 250 NetworkSlicing.router.ppp[0].queue flowIncomingDataRate:vector ETV
attr interpolationmode linear
attr recordingmode vector
attr source throughput(flowPacketLength(demuxFlow(packetPushStarted)))
attr title "flow specific incoming data rate"
attr unit bps
vector 251 NetworkSlicing.router.ppp[0].queue flowOutgoingDataRate:vector ETV
attr interpolationmode linear
attr recordingmode vector
attr source throughput(flowPacketLength(demuxFlow(packetPulled)))
attr title "flow specific outgoing data rate"
attr unit bps
vector 252 NetworkSlicing.router.ppp[0].ppp transmissionState:vector ETV
attr interpolationmode sample-hold
attr recordingmode vector
attr source transmissionStateChanged
attr title "tx state"
vector 253 NetworkSlicing.router.ppp[0].ppp txPk:vector(packetBytes) ETV
attr interpolationmode none
attr recordingmode vector(packetBytes)
attr source packetSentToLower
attr title "packets transmitted, packetBytes"
vector 254 NetworkSlicing.router.ppp[0].ppp rxPkOk:vector(packetBytes) ETV
attr interpolationmode none
attr recordingmode vector(packetBytes)
attr source rxPkOk
attr title "packets received OK, packetBytes"
vector 255 NetworkSlicing.router.ppp[0].ppp packetDropIncorrectlyReceived:vector(packetBytes) ETV
attr interpolationmode none
attr recordingmode vector(packetBytes)
attr source packetDropReasonIsIncorrectlyReceived(packetDropped)
attr title "packet drop: incorrectly received, packetBytes"
vector 256 NetworkSlicing.router.ppp[0].ppp packetDropInterfaceDown:vector(packetBytes) ETV
attr interpolationmode none
attr recordingmode vector(packetBytes)
attr source packetDropReasonIsInterfaceDown(packetDropped)
attr title "packet drop: interface down, packetBytes"
vector 257 NetworkSlicing.router.ppp[0].ppp rcvdPkFromHl:vector(packetBytes) ETV
attr interpolationmode none
attr recordingmode vector(packetBytes)
attr source packetReceivedFromUpper
attr title "packets received from higher layer, packetBytes"
vector 258 NetworkSlicing.router.ppp[0].ppp passedUpPk:vector(packetBytes) ETV
attr interpolationmode none
attr recordingmode vector(packetBytes)
attr source packetSentToUpper
attr title "packets passed to higher layer, packetBytes"
vector 259 NetworkSlicing.router.ppp[0] packetDropInterfaceDown:vector(packetBytes) ETV
attr interpolationmode none
attr recordingmode vector(packetBytes)
attr source packetDropReasonIsInterfaceDown(packetDropped)
attr title "packet drops: interface down, packetBytes"
vector 260 NetworkSlicing.router.ppp[0] packetDropNoCarrier:vector(packetBytes) ETV
attr interpolationmode none
attr recordingmode vector(packetBytes)
attr source packetDropReasonIsNoCarrier(packetDropped)
attr title "packet drops: no carrier, packetBytes"
vector 261 NetworkSlicing.router.ppp[1].queue queueLength:vector ETV
attr autoWarmupFilter false
attr interpolationmode sample-hold
attr recordingmode vector
attr source "warmup(atomic(constant0(packetPushEnded) + count(packetPushStarted) - count(packetPulled) - count(packetRemoved) - count(packetDropped)))"
attr title "queue length"
attr unit pk
vector 262 NetworkSlicing.router.ppp[1].queue queueBitLength:vector ETV
attr autoWarmupFilter false
attr interpolationmode sample-hold
attr recordingmode vector
attr source "warmup(atomic(constant0(packetPushEnded) + sum(packetLength(packetPushStarted)) - sum(packetLength(packetPulled)) - sum(packetLength(packetRemoved)) - sum(packetLength(packetDropped))))"
attr title "queue bit length"
attr unit b
vector 263 NetworkSlicing.router.ppp[1].queue queueingTime:vector ETV
attr interpolationmode none
attr recordingmode vector
attr source queueingTime(packetPulled)
attr title "queueing times"
attr unit s
vector 264 NetworkSlicing.router.ppp[1].queue incomingPacketLengths:vector ETV
attr interpolationmode none
attr recordingmode vector
attr source packetLength(packetPushStarted)
attr title "incoming packet lengths"
attr unit b
vector 265 NetworkSlicing.router.ppp[1].queue incomingDataRate:vector ETV
attr interpolationmode linear
attr recordingmode vector
attr source throughput(packetPushStarted)
attr title "incoming datarate"
attr unit bps
vector 266 NetworkSlicing.router.ppp[1].queue outgoingPacketLengths:vector ETV
attr interpolationmode none
attr recordingmode vector
attr source packetLength(packetPulled)
attr title "outgoing packet lengths"
attr unit b
vector 267 NetworkSlicing.router.ppp[1].queue outgoingDataRate:vector ETV
attr interpolationmode linear
attr recordingmode vector
attr source throughput(packetPulled)
attr title "outgoing datarate"
attr unit bps
vector 268 NetworkSlicing.router.ppp[1].queue droppedPacketLengthsQueueOverflow:vector ETV
attr interpolationmode none
attr recordingmode vector
attr source packetLength(packetDropReasonIsQueueOverflow(packetDropped))
attr title "dropped packet lengths: queue overflow"
attr unit b
vector 269 NetworkSlicing.router.ppp[1].queue flowQueueingTime:vector ETV
attr interpolationmode none
attr recordingmode vector
attr source queueingTime(demuxFlow(packetPulled))
attr title "flow queueing times"
attr unit s
vector 270 NetworkSlicing.router.ppp[1].queue flowIncomingDataRate:vector ETV
attr interpolationmode linear
attr recordingmode vector
attr source throughput(flowPacketLength(demuxFlow(packetPushStarted)))
attr title "flow specific incoming data rate"
attr unit bps
vector 271 NetworkSlicing.router.ppp[1].queue flowOutgoingDataRate:vector ETV
attr interpolationmode linear
attr recordingmode vector
attr source throughput(flowPacketLength(demuxFlow(packetPulled)))
attr title "flow specific outgoing data rate"
attr unit bps
vector 272 NetworkSlicing.router.ppp[1].ppp transmissionState:vector ETV
attr interpolationmode sample-hold
attr recordingmode vector
attr source transmissionStateChanged
attr title "tx state"
vector 273 NetworkSlicing.router.ppp[1].ppp txPk:vector(packetBytes) ETV
attr interpolationmode none
attr recordingmode vector(packetBytes)
attr source packetSentToLower
attr title "packets transmitted, packetBytes"
vector 274 NetworkSlicing.router.ppp[1].ppp rxPkOk:vector(packetBytes) ETV
attr interpolationmode none
attr recordingmode vector(packetBytes)
attr source rxPkOk
attr title "packets received OK, packetBytes"
vector 275 NetworkSlicing.router.ppp[1].ppp packetDropIncorrectlyReceived:vector(packetBytes) ETV
attr interpolationmode none
attr recordingmode vector(packetBytes)
attr source packetDropReasonIsIncorrectlyReceived(packetDropped)
attr title "packet drop: incorrectly received, packetBytes"
vector 276 NetworkSlicing.router.ppp[1].ppp packetDropInterfaceDown:vector(packetBytes) ETV
attr interpolationmode none
attr recordingmode vector(packetBytes)
attr source packetDropReasonIsInterfaceDown(packetDropped)
attr title "packet drop: interface down, packetBytes"
vector 277 NetworkSlicing.router.ppp[1].ppp rcvdPkFromHl:vector(packetBytes) ETV
attr interpolationmode none
attr recordingmode vector(packetBytes)
attr source packetReceivedFromUpper
attr title "packets received from higher layer, packetBytes"
vector 278 NetworkSlicing.router.ppp[1].ppp passedUpPk:vector(packetBytes) ETV
attr interpolationmode none
attr recordingmode vector(packetBytes)
attr source packetSentToUpper
attr title "packets passed to higher layer, packetBytes"
vector 279 NetworkSlicing.router.ppp[1] packetDropInterfaceDown:vector(packetBytes) ETV
attr interpolationmode none
attr recordingmode vector(packetBytes)
attr source packetDropReasonIsInterfaceDown(packetDropped)
attr title "packet drops: interface down, packetBytes"
vector 280 NetworkSlicing.router.ppp[1] packetDropNoCarrier:vector(packetBytes) ETV
attr interpolationmode none
attr recordingmode vector(packetBytes)
attr source packetDropReasonIsNoCarrier(packetDropped)
attr title "packet drops: no carrier, packetBytes"
vector 281 NetworkSlicing.router.ppp[2].queue queueLength:vector ETV
attr autoWarmupFilter false
attr interpolationmode sample-hold
attr recordingmode vector
attr source "warmup(atomic(constant0(packetPushEnded) + count(packetPushStarted) - count(packetPulled) - count(packetRemoved) - count(packetDropped)))"
attr title "queue length"
attr unit pk
vector 282 NetworkSlicing.router.ppp[2].queue queueBitLength:vector ETV
attr autoWarmupFilter false
attr interpolationmode sample-hold
attr recordingmode vector
attr source "warmup(atomic(constant0(packetPushEnded) + sum(packetLength(packetPushStarted)) - sum(packetLength(packetPulled)) - sum(packetLength(packetRemoved)) - sum(packetLength(packetDropped))))"
attr title "queue bit length"
attr unit b
vector 283 NetworkSlicing.router.ppp[2].queue queueingTime:vector ETV
attr interpolationmode none
attr recordingmode vector
attr source queueingTime(packetPulled)
attr title "queueing times"
attr unit s
vector 284 NetworkSlicing.router.ppp[2].queue incomingPacketLengths:vector ETV
attr interpolationmode none
attr recordingmode vector
attr source packetLength(packetPushStarted)
attr title "incoming packet lengths"
attr unit b
vector 285 NetworkSlicing.router.ppp[2].queue incomingDataRate:vector ETV
attr interpolationmode linear
attr recordingmode vector
attr source throughput(packetPushStarted)
attr title "incoming datarate"
attr unit bps
vector 286 NetworkSlicing.router.ppp[2].queue outgoingPacketLengths:vector ETV
attr interpolationmode none
attr recordingmode vector
attr source packetLength(packetPulled)
attr title "outgoing packet lengths"
attr unit b
vector 287 NetworkSlicing.router.ppp[2].queue outgoingDataRate:vector ETV
attr interpolationmode linear
attr recordingmode vector
attr source throughput(packetPulled)
attr title "outgoing datarate"
attr unit bps
vector 288 NetworkSlicing.router.ppp[2].queue droppedPacketLengthsQueueOverflow:vector ETV
attr interpolationmode none
attr recordingmode vector
attr source packetLength(packetDropReasonIsQueueOverflow(packetDropped))
attr title "dropped packet lengths: queue overflow"
attr unit b
vector 289 NetworkSlicing.router.ppp[2].queue flowQueueingTime:vector ETV
attr interpolationmode none
attr recordingmode vector
attr source queueingTime(demuxFlow(packetPulled))
attr title "flow queueing times"
attr unit s
vector 290 NetworkSlicing.router.ppp[2].queue flowIncomingDataRate:vector ETV
attr interpolationmode linear
attr recordingmode vector
attr source throughput(flowPacketLength(demuxFlow(packetPushStarted)))
attr title "flow specific incoming data rate"
attr unit bps
vector 291 NetworkSlicing.router.ppp[2].queue flowOutgoingDataRate:vector ETV
attr interpolationmode linear
attr recordingmode vector
attr source throughput(flowPacketLength(demuxFlow(packetPulled)))
attr title "flow specific outgoing data rate"
attr unit bps
vector 292 NetworkSlicing.router.ppp[2].ppp transmissionState:vector ETV
attr interpolationmode sample-hold
attr recordingmode vector
attr source transmissionStateChanged
attr title "tx state"
vector 293 NetworkSlicing.router.ppp[2].ppp txPk:vector(packetBytes) ETV
attr interpolationmode none
attr recordingmode vector(packetBytes)
attr source packetSentToLower
attr title "packets transmitted, packetBytes"
vector 294 NetworkSlicing.router.ppp[2].ppp rxPkOk:vector(packetBytes) ETV
attr interpolationmode none
attr recordingmode vector(packetBytes)
attr source rxPkOk
attr title "packets received OK, packetBytes"
vector 295 NetworkSlicing.router.ppp[2].ppp packetDropIncorrectlyReceived:vector(packetBytes) ETV
attr interpolationmode none
attr recordingmode vector(packetBytes)
attr source packetDropReasonIsIncorrectlyReceived(packetDropped)
attr title "packet drop: incorrectly received, packetBytes"
vector 296 NetworkSlicing.router.ppp[2].ppp packetDropInterfaceDown:vector(packetBytes) ETV
attr interpolationmode none
attr recordingmode vector(packetBytes)
attr source packetDropReasonIsInterfaceDown(packetDropped)
attr title "packet drop: interface down, packetBytes"
vector 297 NetworkSlicing.router.ppp[2].ppp rcvdPkFromHl:vector(packetBytes) ETV
attr interpolationmode none
attr recordingmode vector(packetBytes)
attr source packetReceivedFromUpper
attr title "packets received from higher layer, packetBytes"
vector 298 NetworkSlicing.router.ppp[2].ppp passedUpPk:vector(packetBytes) ETV
attr interpolationmode none
attr recordingmode vector(packetBytes)
attr source packetSentToUpper
attr title "packets passed to higher layer, packetBytes"
vector 299 NetworkSlicing.router.ppp[2] packetDropInterfaceDown:vector(packetBytes) ETV
attr interpolationmode none
attr recordingmode vector(packetBytes)
attr source packetDropReasonIsInterfaceDown(packetDropped)
attr title "packet drops: interface down, packetBytes"
vector 300 NetworkSlicing.router.ppp[2] packetDropNoCarrier:vector(packetBytes) ETV
attr interpolationmode none
attr recordingmode vector(packetBytes)
attr source packetDropReasonIsNoCarrier(packetDropped)
attr title "packet drops: no carrier, packetBytes"
vector 301 NetworkSlicing.router.ppp[3].queue queueLength:vector ETV
attr autoWarmupFilter false
attr interpolationmode sample-hold
attr recordingmode vector
attr source "warmup(atomic(constant0(packetPushEnded) + count(packetPushStarted) - count(packetPulled) - count(packetRemoved) - count(packetDropped)))"
attr title "queue length"
attr unit pk
vector 302 NetworkSlicing.router.ppp[3].queue queueBitLength:vector ETV
attr autoWarmupFilter false
attr interpolationmode sample-hold
attr recordingmode vector
attr source "warmup(atomic(constant0(packetPushEnded) + sum(packetLength(packetPushStarted)) - sum(packetLength(packetPulled)) - sum(packetLength(packetRemoved)) - sum(packetLength(packetDropped))))"
attr title "queue bit length"
attr unit b
vector 303 NetworkSlicing.router.ppp[3].queue queueingTime:vector ETV
attr interpolationmode none
attr recordingmode vector
attr source queueingTime(packetPulled)
attr title "queueing times"
attr unit s
vector 304 NetworkSlicing.router.ppp[3].queue incomingPacketLengths:vector ETV
attr interpolationmode none
attr recordingmode vector
attr source packetLength(packetPushStarted)
attr title "incoming packet lengths"
attr unit b
vector 305 NetworkSlicing.router.ppp[3].queue incomingDataRate:vector ETV
attr interpolationmode linear
attr recordingmode vector
attr source throughput(packetPushStarted)
attr title "incoming datarate"
attr unit bps
vector 306 NetworkSlicing.router.ppp[3].queue outgoingPacketLengths:vector ETV
attr interpolationmode none
attr recordingmode vector
attr source packetLength(packetPulled)
attr title "outgoing packet lengths"
attr unit b
vector 307 NetworkSlicing.router.ppp[3].queue outgoingDataRate:vector ETV
attr interpolationmode linear
attr recordingmode vector
attr source throughput(packetPulled)
attr title "outgoing datarate"
attr unit bps
vector 308 NetworkSlicing.router.ppp[3].queue droppedPacketLengthsQueueOverflow:vector ETV
attr interpolationmode none
attr recordingmode vector
[...]
386	508337178 1470235 296128517 298371616 1370.1000055864 1380.4770044976 32768 0.010009824736 0.02198824975 510.95902746549 8.2979177323591
389	509807413 1210823 296128517 298371616 1370.1000055864 1380.4770044976 32768 360325 363272 11855882908 4.289631076789e+15
388	511018236 1145278 298371625 300614808 1380.4770055864 1390.8540044976 32768 1290 1290 42270720 54529228800
386	512163514 1470228 298371625 300614808 1380.4770055864 1390.8540044976 32768 0.010009824736 0.02198607215 511.07463751026 8.3015314779785
389	513633742 1210814 298371625 300614808 1380.4770055864 1390.8540044976 32768 363055 366002 11945361094 4.354624122123e+15
388	514844556 1145269 300614827 302858146 1390.8540055864 1401.2300055864 32768 1290 1290 42270720 54529228800
386	515989825 1470218 300614827 302858146 1390.8540055864 1401.2300055864 32768 0.010009824736 0.021987954727 511.1011060533 8.3025907304048
389	517460043 1210805 300614827 302858146 1390.8540055864 1401.2300055864 32768 365787 368733 12034840078 4.4201064226771e+15
388	518670848 1145285 302858151 305101099 1401.2300066752 1411.6060066752 32768 1290 1290 42270720 54529228800
386	519816133 1470235 302858151 305101099 1401.2300066752 1411.6060066752 32768 0.010009824736 0.02198824975 511.20829036847 8.3061195669663
389	521286368 1210821 302858151 305101099 1401.2300066752 1411.6060066752 32768 368517 371463 12124317973 4.4860765944227e+15
388	522497189 1145281 305101282 307344229 1411.6070044976 1421.9820066752 32768 1290 1290 42270720 54529228800
386	523642470 1470229 305101282 307344229 1411.6070044976 1421.9820066752 32768 0.010009824736 0.02198607215 511.26989341893 8.3074607437053
389	525112699 1210817 305101282 307344229 1411.6070044976 1421.9820066752 32768 371248 374194 12213797179 4.5525364092396e+15
388	526323516 1145282 307344425 309587592 1421.9830044976 1432.3600044976 32768 1290 1290 42270720 54529228800
386	527468798 1470233 307344425 309587592 1421.9830044976 1432.3600044976 32768 0.010009824736 0.02198607215 510.83942349738 8.2935635214887
389	528939031 1210818 307344425 309587592 1421.9830044976 1432.3600044976 32768 373979 376927 12303275815 4.6194844780912e+15
388	530149849 1145285 309587601 311830720 1432.3600055864 1442.7360055864 32768 1290 1290 42270720 54529228800
386	531295134 1470233 309587601 311830720 1432.3600055864 1442.7360055864 32768 0.010009824736 0.021987954727 511.00958864712 8.2998949893352
389	532765367 1210821 309587601 311830720 1432.3600055864 1442.7360055864 32768 376709 379656 12392753477 4.6869204817858e+15
388	533976188 1145279 311830725 314073933 1442.7360066752 1453.1130055864 32768 1290 1290 42270720 54529228800
386	535121467 1470228 311830725 314073933 1442.7360066752 1453.1130055864 32768 0.010009824736 0.02198824975 510.95079290141 8.2976432614289
389	536591695 1210815 311830725 314073933 1442.7360066752 1453.1130055864 32768 379438 382388 12482232453 4.7548461486431e+15
388	537802510 1145276 314074120 316317077 1453.1140044976 1463.4890055864 32768 1290 1290 42270720 54529228800
386	538947786 1470226 314074120 316317077 1453.1140044976 1463.4890055864 32768 0.010009824736 0.021985777127 511.35927080476 8.3107580918006
389	540418012 1210812 314074120 316317077 1453.1140044976 1463.4890055864 32768 382170 385118 12571711038 4.8232601941861e+15
388	541628824 1145280 316317082 318560424 1463.4890066752 1473.8660044976 32768 1290 1290 42270720 54529228800
386	542774104 1470231 316317082 318560424 1463.4890066752 1473.8660044976 32768 0.010009824736 0.02198824975 510.97494512385 8.2983147297378
389	544244335 1210816 316317082 318560424 1463.4890066752 1473.8660044976 32768 384900 387849 12661188994 4.8921624254176e+15
429	545455151 1111998 265627375 318755426 1229.0100061384 1474.7680061384 32768 292 292 9568256 2793930752
427	546567149 1472446 265627375 318755426 1229.0100061384 1474.7680061384 32768 0.014010705327 0.015356579922 466.49510265283 6.6429062253718
430	548039595 1177534 265627375 318755426 1229.0100061384 1474.7680061384 32768 40953 49158 1476378624 66702229979136
388	549217129 1145288 318560433 320803568 1473.8660055864 1484.2420055864 32768 1290 1290 42270720 54529228800
386	550362417 1470237 318560433 320803568 1473.8660055864 1484.2420055864 32768 0.010009824736 0.02198824975 510.99159693989 8.2992643528734
389	551832654 1210824 318560433 320803568 1473.8660055864 1484.2420055864 32768 387631 390578 12750667880 4.9615540460852e+15
388	553043478 1145286 320803573 323046860 1484.2420066752 1494.6190055864 32768 1290 1290 42270720 54529228800
386	554188764 1470234 320803573 323046860 1484.2420066752 1494.6190055864 32768 0.010009824736 0.02198824975 510.85923034147 8.2951128013468
389	555658998 1210822 320803573 323046860 1484.2420066752 1494.6190055864 32768 390361 393310 12840146319 5.0314339937034e+15
388	556869820 1145267 323046865 325289758 1494.6190066752 1504.994007764 32768 1290 1290 42270720 54529228800
386	558015087 1470216 323046865 325289758 1494.6190066752 1504.994007764 32768 0.010009824736 0.021987954727 511.0392582497 8.2997833651854
389	559485303 1210803 323046865 325289758 1494.6190066752 1504.994007764 32768 393093 396041 12929624398 5.1018023272198e+15
388	560696106 1145274 325289951 327533157 1504.9950044976 1515.3720044976 32768 1290 1290 42270720 54529228800
386	561841380 1470223 325289951 327533157 1504.9950044976 1515.3720044976 32768 0.010009824736 0.02198824975 511.07292354384 8.3012112770709
389	563311603 1210810 325289951 327533157 1504.9950044976 1515.3720044976 32768 395824 398771 13019103157 5.1726598681601e+15
388	564522413 1145259 327533172 329776491 1515.3720055864 1525.7480066752 32768 1290 1290 42270720 54529228800
386	565667672 1470208 327533172 329776491 1515.3720055864 1525.7480066752 32768 0.010009824736 0.021987954727 511.16793942959 8.3043342506231
389	567137880 1210795 327533172 329776491 1515.3720055864 1525.7480066752 32768 398555 401503 13108582142 5.2440062668611e+15
388	568348675 1145275 329776679 332019853 1525.7490044976 1536.1250044976 32768 1290 1290 42270720 54529228800
386	569493950 1470226 329776679 332019853 1525.7490044976 1536.1250044976 32768 0.010009824736 0.021987954727 510.96556447945 8.2987345451247
389	570964176 1210811 329776679 332019853 1525.7490044976 1536.1250044976 32768 401285 404232 13198059818 5.3158402875229e+15
388	572174987 1145278 332019868 334262993 1536.1250055864 1546.5010055864 32768 1290 1290 42270720 54529228800
386	573320265 1470227 332019868 334262993 1536.1250055864 1546.5010055864 32768 0.010009824736 0.02198824975 510.74192256312 8.2906489607834
389	574790492 1210814 332019868 334262993 1536.1250055864 1546.5010055864 32768 404016 406962 13287539030 5.3881642166722e+15
388	576001306 1145291 334262998 336506172 1546.5010066752 1556.8780066752 32768 1290 1290 42270720 54529228800
386	577146597 1470239 334262998 336506172 1546.5010066752 1556.8780066752 32768 0.010009824736 0.021987954727 510.87790188655 8.2951888687867
389	578616836 1210827 334262998 336506172 1546.5010066752 1556.8780066752 32768 406745 409693 13377017004 5.4609758153954e+15
388	579827663 1145274 336506349 338749083 1556.8790044976 1567.2540066752 32768 1290 1290 42270720 54529228800
386	580972937 1470223 336506349 338749083 1556.8790044976 1567.2540066752 32768 0.010009824736 0.021987954727 510.70397416913 8.2898954367488
389	582443160 1210810 336506349 338749083 1556.8790044976 1567.2540066752 32768 409476 412423 13466495735 5.534276701868e+15
388	583653970 1145280 338749306 340992336 1567.2550044976 1577.6300066752 32768 1290 1290 42270720 54529228800
386	584799250 1470230 338749306 340992336 1567.2550044976 1577.6300066752 32768 0.010009824736 0.021987954727 510.95849005948 8.2977437289571
389	586269480 1210816 338749306 340992336 1567.2550044976 1577.6300066752 32768 412207 415156 13555974518 5.6080663073392e+15
388	587480296 1145291 340992523 343235355 1577.6310044976 1588.007007764 32768 1290 1290 42270720 54529228800
386	588625587 1470240 340992523 343235355 1577.6310044976 1588.007007764 32768 0.010009824736 0.021987954727 510.98721741853 8.2990088434898
389	590095827 1210827 340992523 343235355 1577.6310044976 1588.007007764 32768 414937 417886 13645452024 5.6823435224695e+15
388	591306654 1145263 343235566 345478767 1588.0080044976 1598.3840044976 32768 1290 1290 42270720 54529228800
386	592451917 1470214 343235566 345478767 1588.0080044976 1598.3840044976 32768 0.010009824736 0.021987954727 511.40207263021 8.3117937916877
389	593922131 1210799 343235566 345478767 1588.0080044976 1598.3840044976 32768 417669 420615 13734931297 5.7571108795262e+15
388	595132930 1145277 345478776 347721767 1598.3840055864 1608.7600088528 32768 1290 1290 42270720 54529228800
386	596278207 1470227 345478776 347721767 1598.3840055864 1608.7600088528 32768 0.010009824736 0.02198824975 511.11468974836 8.3026148903621
389	597748434 1210813 345478776 347721767 1598.3840055864 1608.7600088528 32768 420399 423347 13824409733 5.8323662128474e+15
388	598959247 1145265 347721969 349965326 1608.7610044976 1619.1370044976 32768 1290 1290 42270720 54529228800
386	600104512 1470214 347721969 349965326 1608.7610044976 1619.1370044976 32768 0.010009824736 0.02198824975 511.53504382059 8.3162861190072
389	601574726 1210801 347721969 349965326 1608.7610044976 1619.1370044976 32768 423131 426077 13913888090 5.9081101497925e+15
388	602785527 1145271 349965335 352208665 1619.1370055864 1629.5140055864 32768 1290 1290 42270720 54529228800
386	603930798 1470220 349965335 352208665 1619.1370055864 1629.5140055864 32768 0.010009824736 0.02198824975 511.05028769018 8.3006267017373
389	605401018 1210807 349965335 352208665 1619.1370055864 1629.5140055864 32768 425861 428809 14003366555 5.9843428491342e+15
388	606611825 1145272 352208670 354451758 1629.5140066752 1639.8900055864 32768 1290 1290 42270720 54529228800
386	607757097 1470220 352208670 354451758 1629.5140066752 1639.8900055864 32768 0.010009824736 0.02198824975 511.10336492779 8.3028087207346
389	609227317 1210808 352208670 354451758 1629.5140066752 1639.8900055864 32768 428591 431539 14092845004 6.0610642061437e+15
511	610438125 1075576 200623 354457829 1.2180054016 1639.918006752 32768 512 512 16777216 8589934592
509	611513701 1436024 200623 354457829 1.2180054016 1639.918006752 32768 0.014118008833 0.015294694292 466.16559204629 6.6326782470124
512	612949725 1118892 200623 354457829 1.2180054016 1639.918006752 32768 0 16387 268419088 2931763101680
388	614068617 1145278 354451777 356694993 1639.8900066752 1650.2670066752 32768 1290 1290 42270720 54529228800
386	615213895 1470229 354451777 356694993 1639.8900066752 1650.2670066752 32768 0.010009824736 0.02198824975 510.49085681228 8.2828039880566
389	616684124 1210814 354451777 356694993 1639.8900066752 1650.2670066752 32768 431321 434270 14182323485 6.1382742622494e+15
388	617894938 1145278 356695201 358937986 1650.2680044976 1660.6430066752 32768 1290 1290 42270720 54529228800
386	619040216 1470227 356695201 358937986 1650.2680044976 1660.6430066752 32768 0.010009824736 0.021987954727 511.01976833742 8.2995108091032
389	620510443 1210814 356695201 358937986 1650.2680044976 1660.6430066752 32768 434053 436999 14271801620 6.2159726876894e+15
388	621721257 1145286 358938189 361181211 1660.6440044976 1671.0200066752 32768 1290 1290 42270720 54529228800
386	622866543 1470234 358938189 361181211 1660.6440044976 1671.0200066752 32768 0.010009824736 0.021987954727 510.80229930884 8.2930129928687
389	624336777 1210822 358938189 361181211 1660.6440044976 1671.0200066752 32768 436785 439732 14361280946 6.2941608264781e+15
388	625547599 1145270 361181398 363424402 1671.0210044976 1681.3960055864 32768 1290 1290 42270720 54529228800
386	626692869 1470220 361181398 363424402 1671.0210044976 1681.3960055864 32768 0.010009824736 0.021987954727 511.5406875624 8.3159963172867
389	628163089 1210806 361181398 363424402 1671.0210044976 1681.3960055864 32768 439514 442462 14450758952 6.3728364830353e+15
388	629373895 1145261 363424407 365667658 1681.3960066752 1691.7730044976 32768 1290 1290 42270720 54529228800
386	630519156 1470211 363424407 365667658 1681.3960066752 1691.7730044976 32768 0.010009824736 0.02198824975 511.00545251612 8.2989027914899
389	631989367 1210797 363424407 365667658 1681.3960066752 1691.7730044976 32768 442246 445193 14540237457 6.4520012477327e+15
388	633200164 1145276 365667667 367910728 1691.7730055864 1702.1490066752 32768 1290 1290 42270720 54529228800
386	634345440 1470225 365667667 367910728 1691.7730055864 1702.1490066752 32768 0.010009824736 0.02198824975 511.06469405675 8.3010167298803
389	635815665 1210812 365667667 367910728 1691.7730055864 1702.1490066752 32768 444975 447924 14629716528 6.5316551915968e+15
388	637026477 1145279 367910904 370153829 1702.1500044976 1712.525007764 32768 1290 1290 42270720 54529228800
386	638171756 1470228 367910904 370153829 1702.1500044976 1712.525007764 32768 0.010009824736 0.02198824975 510.72895724289 8.2908169671557
389	639641984 1210815 367910904 370153829 1702.1500044976 1712.525007764 32768 447705 450652 14719193648 6.6117960587559e+15
429	640852799 1112049 318755866 371884055 1474.7700061384 1720.5280072272 32768 292 292 9568256 2793930752
427	641964848 1472497 318755866 371884055 1474.7700061384 1720.5280072272 32768 0.014010705327 0.015356579922 466.41692082323 6.6405921198226
430	643437345 1177585 318755866 371884055 1474.7700061384 1720.5280072272 32768 49145 57350 1744814080 93090240610304
388	644614930 1145273 370154037 372397150 1712.5260044976 1722.9020066752 32768 1290 1290 42270720 54529228800
386	645760203 1470221 370154037 372397150 1712.5260044976 1722.9020066752 32768 0.010009824736 0.021987954727 511.14904351284 8.3030343813477
389	647230424 1210809 370154037 372397150 1712.5260044976 1722.9020066752 32768 450437 453384 14808672871 6.6924274819406e+15
388	648441233 1145278 372397329 374640367 1722.9030044976 1733.2790066752 32768 1290 1290 42270720 54529228800
386	649586511 1470230 372397329 374640367 1722.9030044976 1733.2790066752 32768 0.010009824736 0.02198824975 510.90983959889 8.2963587931599
389	651056741 1210814 372397329 374640367 1722.9030044976 1733.2790066752 32768 453167 456115 14898151924 6.7735474340395e+15
388	652267555 1145273 374640576 376883642 1733.2800044976 1743.6550055864 32768 1290 1290 42270720 54529228800
386	653412828 1470223 374640576 376883642 1733.2800044976 1743.6550055864 32768 0.010009824736 0.021987954727 511.15182696642 8.3035613686122
389	654883051 1210809 374640576 376883642 1733.2800044976 1743.6550055864 32768 455898 458845 14987629699 6.855154894641e+15
388	656093860 1145280 376883647 379127029 1743.6550066752 1754.0320055864 32768 1290 1290 42270720 54529228800
386	657239140 1470227 376883647 379127029 1743.6550066752 1754.0320055864 32768 0.010009824736 0.02198824975 511.29010917707 8.3077769039582
389	658709367 1210816 376883647 379127029 1743.6550066752 1754.0320055864 32768 458630 461577 15077108219 6.9372517030347e+15
388	659920183 1145283 379127034 381370012 1754.0320066752 1764.4080066752 32768 1290 1290 42270720 54529228800
386	661065466 1470233 379127034 381370012 1754.0320066752 1764.4080066752 32768 0.010009824736 0.02198607215 510.81126974737 8.2928802066369
389	662535699 1210819 379127034 381370012 1754.0320066752 1764.4080066752 32768 461360 464308 15166586929 7.019837360288e+15
388	663746518 1145272 381370205 383613207 1764.4090044976 1774.7850066752 32768 1290 1290 42270720 54529228800
386	664891790 1470220 381370205 383613207 1764.4090044976 1774.7850066752 32768 0.010009824736 0.021985777127 510.96708793771 8.2981768115308
389	666362010 1210808 381370205 383613207 1764.4090044976 1774.7850066752 32768 464090 467037 15256065260 7.1029113391004e+15
388	667572818 1145271 383613381 385856218 1774.7860044976 1785.1610055864 32768 1290 1290 42270720 54529228800
386	668718089 1470221 383613381 385856218 1774.7860044976 1785.1610055864 32768 0.010009824736 0.02198824975 511.15030180702 8.303920680572
389	670188310 1210807 383613381 385856218 1774.7860044976 1785.1610055864 32768 466822 469768 15345544397 7.1864747443245e+15
388	671399117 1145284 385856223 388099600 1785.1610066752 1795.5380055864 32768 1290 1290 42270720 54529228800
386	672544401 1470233 385856223 388099600 1785.1610066752 1795.5380055864 32768 0.010009824736 0.02198824975 510.69734161395 8.289199747761
389	674014634 1210820 385856223 388099600 1785.1610066752 1795.5380055864 32768 469551 472499 15435022039 7.2705254195644e+15
386	675225454 632063 388099609 389063814 1795.5380066752 1799.9990055864 14087 0.010009824736 0.021985777127 219.49607003195 3.5620119398904
388	675857517 492367 388099609 389063814 1795.5380066752 1799.9990055864 14087 1290 1290 18172230 23442176700
389	676349884 520541 388099609 389063814 1795.5380066752 1799.9990055864 14087 472283 473673 6663035007 3.1515623693222e+15
427	676870425 476172 371884496 389063660 1720.5300061384 1799.9980061384 10596 0.014010705327 0.015356579922 150.84282513083 2.1479290076878
429	677346597 359616 371884496 389063660 1720.5300061384 1799.9980061384 10596 292 292 3094032 903457344
430	677706213 380808 371884496 389063660 1720.5300061384 1799.9980061384 10596 57337 59999 621646128 36476931532388
468	678087021 31513 770132 388827162 3.8550049192 1798.9040057464 720 0.008449676173 0.008772599503 6.19971521296 0.0534023656895
470	678118534 22873 770132 388827162 3.8550049192 1798.9040057464 720 47 47 33840 1590480
471	678141407 23373 770132 388827162 3.8550049192 1798.9040057464 720 0 359 129240 30974520
509	678164780 143428 354469409 389058056 1639.9720064904 1799.9720064904 3201 0.014118008833 0.015294694292 45.534486447092 0.64781389829261
511	678308208 108217 354469409 389058056 1639.9720064904 1799.9720064904 3201 512 512 1638912 839122944
512	678416425 114619 354469409 389058056 1639.9720064904 1799.9720064904 3201 16380 17987 55005180 945878549200
651	678531044 29 389063994 389063994 1800 1800 1 339375.35 339375.35 339375.35 115175628187.62
791	678531073 35 389063994 389063994 1800 1800 1 339359.58333333 339359.58333333 339359.58333333 115164926800.17
931	678531108 35 389063994 389063994 1800 1800 1 339365.31666667 339365.31666667 339365.31666667 115168818156.27
1071	678531143 30 389063994 389063994 1800 1800 1 339444.15 339444.15 339444.15 115222330969.22
1211	678531173 36 389063994 389063994 1800 1800 1 339393.26666667 339393.26666667 339393.26666667 115187789458.67
1351	678531209 36 389063994 389063994 1800 1800 1 339449.16666667 339449.16666667 339449.16666667 115225736750.69
1491	678531245 36 389063994 389063994 1800 1800 1 339469.23333333 339469.23333333 339469.23333333 115239360379.92
1631	678531281 36 389063994 389063994 1800 1800 1 339386.81666667 339386.81666667 339386.81666667 115183411327.13
1771	678531317 36 389063994 389063994 1800 1800 1 339384.66666667 339384.66666667 339384.66666667 115181951968.44
1911	678531353 36 389063994 389063994 1800 1800 1 339467.08333333 339467.08333333 339467.08333333 115237900666.84
2051	678531389 36 389063994 389063994 1800 1800 1 339410.46666667 339410.46666667 339410.46666667 115199464882.88
2191	678531425 27 389063994 389063994 1800 1800 1 339313 339313 339313 115133311969
2331	678531452 36 389063994 389063994 1800 1800 1 9732.6844444444 9732.6844444444 9732.6844444444 94725146.495131
2471	678531488 36 389063994 389063994 1800 1800 1 9731.2244444444 9731.2244444444 9731.2244444444 94696729.188153
2611	678531524 36 389063994 389063994 1800 1800 1 9731.8733333333 9731.8733333333 9731.8733333333 94709358.576044
2751	678531560 36 389063994 389063994 1800 1800 1 9733.3333333333 9733.3333333333 9733.3333333333 94737777.777778
2891	678531596 24 389063994 389063994 1800 1800 1 9.4 9.4 9.4 88.36
3031	678531620 24 389063994 389063994 1800 1800 1 9.4 9.4 9.4 88.36
3171	678531644 36 389063994 389063994 1800 1800 1 5114.5955555556 5114.5955555556 5114.5955555556 26159087.696909
3311	678531680 36 389063994 389063994 1800 1800 1 5116.5866666667 5116.5866666667 5116.5866666667 26179459.117511

